 xtb: 6.7.1 (edcfbbe)
          04092507313D

 38 37  0     0  0            999 V2000
    5.1261   -1.8198    0.8696 C   0  0  0  0  0  0  0  0  0  0  0  0
    4.5867   -1.4921   -0.5097 C   0  0  0  0  0  0  0  0  0  0  0  0
    3.1531   -1.6413   -0.4843 O   0  0  0  0  0  0  0  0  0  0  0  0
    2.4259   -0.9007   -1.2891 C   0  0  0  0  0  0  0  0  0  0  0  0
    2.8722   -0.0998   -2.0832 O   0  0  0  0  0  0  0  0  0  0  0  0
    0.9447   -1.1847   -1.1169 C   0  0  0  0  0  0  0  0  0  0  0  0
    0.1626    0.1046   -1.3220 C   0  0  0  0  0  0  0  0  0  0  0  0
    0.4909    0.5734   -2.2580 H   0  0  0  0  0  0  0  0  0  0  0  0
    0.3735    1.1255   -0.2207 C   0  0  0  0  0  0  0  0  0  0  0  0
   -0.4626    1.9634    0.0552 O   0  0  0  0  0  0  0  0  0  0  0  0
    1.5482    1.0129    0.3418 O   0  0  0  0  0  0  0  0  0  0  0  0
    1.8931    1.9462    1.3858 C   0  0  0  0  0  0  0  0  0  0  0  0
    2.4308    3.2430    0.8052 C   0  0  0  0  0  0  0  0  0  0  0  0
   -1.6253   -0.1561   -1.5250 S   0  0  0  0  0  0  0  0  0  0  0  0
   -2.2614   -0.1072    0.5030 P   0  0  0  0  0  0  0  0  0  0  0  0
   -0.9774   -0.6526    1.8755 S   0  0  0  0  0  0  0  0  0  0  0  0
   -2.9725    1.2600    0.8384 O   0  0  0  0  0  0  0  0  0  0  0  0
   -3.8917    1.9072   -0.0629 C   0  0  0  0  0  0  0  0  0  0  0  0
   -3.5487   -1.0587    0.4197 O   0  0  0  0  0  0  0  0  0  0  0  0
   -3.4230   -2.4681    0.1999 C   0  0  0  0  0  0  0  0  0  0  0  0
    4.8492   -2.8331    1.1443 H   0  0  0  0  0  0  0  0  0  0  0  0
    6.2074   -1.7315    0.8626 H   0  0  0  0  0  0  0  0  0  0  0  0
    4.7154   -1.1355    1.6064 H   0  0  0  0  0  0  0  0  0  0  0  0
    4.9779   -2.1814   -1.2635 H   0  0  0  0  0  0  0  0  0  0  0  0
    4.8226   -0.4672   -0.8114 H   0  0  0  0  0  0  0  0  0  0  0  0
    0.7739   -1.6093   -0.1268 H   0  0  0  0  0  0  0  0  0  0  0  0
    0.6453   -1.9097   -1.8764 H   0  0  0  0  0  0  0  0  0  0  0  0
    1.0015    2.1239    1.9945 H   0  0  0  0  0  0  0  0  0  0  0  0
    2.6480    1.4219    1.9716 H   0  0  0  0  0  0  0  0  0  0  0  0
    1.6504    3.7563    0.2481 H   0  0  0  0  0  0  0  0  0  0  0  0
    2.7673    3.8832    1.6138 H   0  0  0  0  0  0  0  0  0  0  0  0
    3.2633    3.0356    0.1378 H   0  0  0  0  0  0  0  0  0  0  0  0
   -3.3445    2.2905   -0.9239 H   0  0  0  0  0  0  0  0  0  0  0  0
   -4.3197    2.7246    0.5114 H   0  0  0  0  0  0  0  0  0  0  0  0
   -4.6627    1.2074   -0.3803 H   0  0  0  0  0  0  0  0  0  0  0  0
   -2.6813   -2.8881    0.8809 H   0  0  0  0  0  0  0  0  0  0  0  0
   -3.1334   -2.6569   -0.8334 H   0  0  0  0  0  0  0  0  0  0  0  0
   -4.4058   -2.8841    0.4060 H   0  0  0  0  0  0  0  0  0  0  0  0
  1  2  1  0  0  0  0
  2  3  1  0  0  0  0
  3  4  4  0  0  0  0
  4  5  2  0  0  0  0
  4  6  1  0  0  0  0
  6  7  1  0  0  0  0
  7  8  1  0  0  0  0
  7  9  1  0  0  0  0
  9 10  2  0  0  0  0
  9 11  4  0  0  0  0
 11 12  1  0  0  0  0
 12 13  1  0  0  0  0
  7 14  1  0  0  0  0
 14 15  1  0  0  0  0
 15 16  2  0  0  0  0
 15 17  2  0  0  0  0
 17 18  1  0  0  0  0
 15 19  1  0  0  0  0
 19 20  1  0  0  0  0
  1 21  1  0  0  0  0
  1 22  1  0  0  0  0
  1 23  1  0  0  0  0
  2 24  1  0  0  0  0
  2 25  1  0  0  0  0
  6 26  1  0  0  0  0
  6 27  1  0  0  0  0
 12 28  1  0  0  0  0
 12 29  1  0  0  0  0
 13 30  1  0  0  0  0
 13 31  1  0  0  0  0
 13 32  1  0  0  0  0
 18 33  1  0  0  0  0
 18 34  1  0  0  0  0
 18 35  1  0  0  0  0
 20 36  1  0  0  0  0
 20 37  1  0  0  0  0
 20 38  1  0  0  0  0
M  END
