 xtb: 6.7.1 (edcfbbe)
          04092505213D

 41 40  0     0  0            999 V2000
    4.0072    0.4651   -2.7404 C   0  0  0  0  0  0  0  0  0  0  0  0
    2.8939    0.8372   -1.7838 C   0  0  0  0  0  0  0  0  0  0  0  0
    3.2544    0.3511   -0.4632 O   0  0  0  0  0  0  0  0  0  0  0  0
    2.1701   -0.1349    0.5810 P   0  0  0  0  0  0  0  0  0  0  0  0
    2.9610   -0.7853    2.2411 S   0  0  0  0  0  0  0  0  0  0  0  0
    1.2123   -1.1724   -0.1667 O   0  0  0  0  0  0  0  0  0  0  0  0
    1.4248   -2.5935   -0.0783 C   0  0  0  0  0  0  0  0  0  0  0  0
    2.6570   -3.0167   -0.8499 C   0  0  0  0  0  0  0  0  0  0  0  0
    0.8769    1.5264    0.7380 S   0  0  0  0  0  0  0  0  0  0  0  0
   -0.1350    0.8888    2.0961 C   0  0  0  0  0  0  0  0  0  0  0  0
   -1.2287   -0.4836    1.6297 S   0  0  0  0  0  0  0  0  0  0  0  0
   -2.0516    0.3164   -0.1684 P   0  0  0  0  0  0  0  0  0  0  0  0
   -1.1059    0.1491   -1.8820 S   0  0  0  0  0  0  0  0  0  0  0  0
   -2.3230    1.8072    0.2923 O   0  0  0  0  0  0  0  0  0  0  0  0
   -2.3839    2.8998   -0.6451 C   0  0  0  0  0  0  0  0  0  0  0  0
   -3.6841    2.8744   -1.4204 C   0  0  0  0  0  0  0  0  0  0  0  0
   -3.5224   -0.2888   -0.1711 O   0  0  0  0  0  0  0  0  0  0  0  0
   -3.8669   -1.6684    0.0427 C   0  0  0  0  0  0  0  0  0  0  0  0
   -3.0053   -2.6209   -0.7601 C   0  0  0  0  0  0  0  0  0  0  0  0
    4.1062   -0.6149   -2.8054 H   0  0  0  0  0  0  0  0  0  0  0  0
    3.7755    0.8633   -3.7229 H   0  0  0  0  0  0  0  0  0  0  0  0
    4.9479    0.8824   -2.3927 H   0  0  0  0  0  0  0  0  0  0  0  0
    1.9385    0.3962   -2.0835 H   0  0  0  0  0  0  0  0  0  0  0  0
    2.7786    1.9208   -1.7070 H   0  0  0  0  0  0  0  0  0  0  0  0
    1.5113   -2.8658    0.9784 H   0  0  0  0  0  0  0  0  0  0  0  0
    0.5155   -3.0242   -0.5007 H   0  0  0  0  0  0  0  0  0  0  0  0
    3.5393   -2.5420   -0.4198 H   0  0  0  0  0  0  0  0  0  0  0  0
    2.7689   -4.0945   -0.7870 H   0  0  0  0  0  0  0  0  0  0  0  0
    2.5656   -2.7232   -1.8928 H   0  0  0  0  0  0  0  0  0  0  0  0
   -0.7366    1.7209    2.4534 H   0  0  0  0  0  0  0  0  0  0  0  0
    0.5168    0.5027    2.8814 H   0  0  0  0  0  0  0  0  0  0  0  0
   -2.2937    3.7911   -0.0233 H   0  0  0  0  0  0  0  0  0  0  0  0
   -1.5251    2.8312   -1.3210 H   0  0  0  0  0  0  0  0  0  0  0  0
   -3.7349    1.9628   -2.0150 H   0  0  0  0  0  0  0  0  0  0  0  0
   -4.5294    2.8938   -0.7379 H   0  0  0  0  0  0  0  0  0  0  0  0
   -3.7294    3.7340   -2.0814 H   0  0  0  0  0  0  0  0  0  0  0  0
   -3.7754   -1.8763    1.1128 H   0  0  0  0  0  0  0  0  0  0  0  0
   -4.9145   -1.7245   -0.2585 H   0  0  0  0  0  0  0  0  0  0  0  0
   -1.9671   -2.5341   -0.4377 H   0  0  0  0  0  0  0  0  0  0  0  0
   -3.3421   -3.6398   -0.5987 H   0  0  0  0  0  0  0  0  0  0  0  0
   -3.0602   -2.3839   -1.8203 H   0  0  0  0  0  0  0  0  0  0  0  0
  1  2  1  0  0  0  0
  2  3  1  0  0  0  0
  3  4  2  0  0  0  0
  4  5  2  0  0  0  0
  4  6  1  0  0  0  0
  6  7  1  0  0  0  0
  7  8  1  0  0  0  0
  4  9  1  0  0  0  0
  9 10  1  0  0  0  0
 10 11  1  0  0  0  0
 11 12  1  0  0  0  0
 12 13  2  0  0  0  0
 12 14  2  0  0  0  0
 14 15  1  0  0  0  0
 15 16  1  0  0  0  0
 12 17  2  0  0  0  0
 17 18  1  0  0  0  0
 18 19  1  0  0  0  0
  1 20  1  0  0  0  0
  1 21  1  0  0  0  0
  1 22  1  0  0  0  0
  2 23  1  0  0  0  0
  2 24  1  0  0  0  0
  7 25  1  0  0  0  0
  7 26  1  0  0  0  0
  8 27  1  0  0  0  0
  8 28  1  0  0  0  0
  8 29  1  0  0  0  0
 10 30  1  0  0  0  0
 10 31  1  0  0  0  0
 15 32  1  0  0  0  0
 15 33  1  0  0  0  0
 16 34  1  0  0  0  0
 16 35  1  0  0  0  0
 16 36  1  0  0  0  0
 18 37  1  0  0  0  0
 18 38  1  0  0  0  0
 19 39  1  0  0  0  0
 19 40  1  0  0  0  0
 19 41  1  0  0  0  0
M  END
