 xtb: 6.7.1 (edcfbbe)
          04092509473D

 38 37  0     0  0            999 V2000
    4.2340   -0.2683   -2.3284 C   0  0  0  0  0  0  0  0  0  0  0  0
    3.6786   -1.6828   -2.3208 C   0  0  0  0  0  0  0  0  0  0  0  0
    2.4685   -1.7455   -1.5428 O   0  0  0  0  0  0  0  0  0  0  0  0
    2.5506   -2.1042   -0.2731 C   0  0  0  0  0  0  0  0  0  0  0  0
    3.5687   -2.4465    0.2828 O   0  0  0  0  0  0  0  0  0  0  0  0
    1.1834   -2.1303    0.3867 C   0  0  0  0  0  0  0  0  0  0  0  0
    0.4057   -0.8475    0.1204 C   0  0  0  0  0  0  0  0  0  0  0  0
    0.2714   -0.6929   -0.9595 H   0  0  0  0  0  0  0  0  0  0  0  0
    1.1557    0.3668    0.6388 C   0  0  0  0  0  0  0  0  0  0  0  0
    2.3642    0.4147    0.6707 O   0  0  0  0  0  0  0  0  0  0  0  0
    0.3492    1.3464    0.9899 O   0  0  0  0  0  0  0  0  0  0  0  0
    0.9357    2.5798    1.4633 C   0  0  0  0  0  0  0  0  0  0  0  0
    1.1566    2.5403    2.9666 C   0  0  0  0  0  0  0  0  0  0  0  0
   -1.2582   -0.9834    0.8532 S   0  0  0  0  0  0  0  0  0  0  0  0
   -2.2519    0.5335   -0.2576 P   0  0  0  0  0  0  0  0  0  0  0  0
   -1.4809    0.9873   -1.9972 S   0  0  0  0  0  0  0  0  0  0  0  0
   -3.7569   -0.0148   -0.2993 O   0  0  0  0  0  0  0  0  0  0  0  0
   -4.1472   -1.1246   -1.1163 C   0  0  0  0  0  0  0  0  0  0  0  0
   -2.4382    1.7924    0.6757 O   0  0  0  0  0  0  0  0  0  0  0  0
   -2.9380    1.6737    2.0216 C   0  0  0  0  0  0  0  0  0  0  0  0
    3.4928    0.4207   -2.7253 H   0  0  0  0  0  0  0  0  0  0  0  0
    4.4844    0.0361   -1.3142 H   0  0  0  0  0  0  0  0  0  0  0  0
    5.1259   -0.2323   -2.9450 H   0  0  0  0  0  0  0  0  0  0  0  0
    4.4019   -2.3842   -1.8949 H   0  0  0  0  0  0  0  0  0  0  0  0
    3.3829   -2.0000   -3.3217 H   0  0  0  0  0  0  0  0  0  0  0  0
    1.3261   -2.2811    1.4570 H   0  0  0  0  0  0  0  0  0  0  0  0
    0.6282   -2.9760   -0.0222 H   0  0  0  0  0  0  0  0  0  0  0  0
    1.8813    2.7333    0.9359 H   0  0  0  0  0  0  0  0  0  0  0  0
    0.2158    3.3487    1.1811 H   0  0  0  0  0  0  0  0  0  0  0  0
    0.2212    2.3479    3.4844 H   0  0  0  0  0  0  0  0  0  0  0  0
    1.8727    1.7620    3.2213 H   0  0  0  0  0  0  0  0  0  0  0  0
    1.5525    3.4979    3.2896 H   0  0  0  0  0  0  0  0  0  0  0  0
   -3.7087   -2.0460   -0.7337 H   0  0  0  0  0  0  0  0  0  0  0  0
   -3.8324   -0.9614   -2.1479 H   0  0  0  0  0  0  0  0  0  0  0  0
   -5.2322   -1.1651   -1.0540 H   0  0  0  0  0  0  0  0  0  0  0  0
   -2.3264    0.9655    2.5810 H   0  0  0  0  0  0  0  0  0  0  0  0
   -3.9734    1.3394    2.0069 H   0  0  0  0  0  0  0  0  0  0  0  0
   -2.8595    2.6714    2.4450 H   0  0  0  0  0  0  0  0  0  0  0  0
  1  2  1  0  0  0  0
  2  3  1  0  0  0  0
  3  4  1  0  0  0  0
  4  5  2  0  0  0  0
  4  6  1  0  0  0  0
  6  7  1  0  0  0  0
  7  8  1  0  0  0  0
  7  9  1  0  0  0  0
  9 10  2  0  0  0  0
  9 11  1  0  0  0  0
 11 12  1  0  0  0  0
 12 13  1  0  0  0  0
  7 14  1  0  0  0  0
 14 15  1  0  0  0  0
 15 16  2  0  0  0  0
 15 17  1  0  0  0  0
 17 18  1  0  0  0  0
 15 19  2  0  0  0  0
 19 20  1  0  0  0  0
  1 21  1  0  0  0  0
  1 22  1  0  0  0  0
  1 23  1  0  0  0  0
  2 24  1  0  0  0  0
  2 25  1  0  0  0  0
  6 26  1  0  0  0  0
  6 27  1  0  0  0  0
 12 28  1  0  0  0  0
 12 29  1  0  0  0  0
 13 30  1  0  0  0  0
 13 31  1  0  0  0  0
 13 32  1  0  0  0  0
 18 33  1  0  0  0  0
 18 34  1  0  0  0  0
 18 35  1  0  0  0  0
 20 36  1  0  0  0  0
 20 37  1  0  0  0  0
 20 38  1  0  0  0  0
M  END
