  21
 
 C         -3.3077619792       -0.3299318634        0.0918366170
 C         -1.9777370969        0.2557433178       -0.3659446147
 C         -0.7915398357       -0.5438266729        0.1693899042
 C          0.5524808503        0.0967408238       -0.2019328425
 H          0.6012787526        0.2333723499       -1.2885516323
 C          1.7259117055       -0.7828507971        0.2520749428
 C          3.0647377032       -0.2362274313       -0.2305226227
 O          0.6608351873        1.4092615546        0.3179702760
 H         -4.1358653007        0.2560032518       -0.2987525074
 H         -3.4133843056       -1.3536330758       -0.2603902723
 H         -3.3708226247       -0.3329250400        1.1777402564
 H         -1.9379450067        0.2648898626       -1.4573954330
 H         -1.8920144665        1.2902439651       -0.0272805762
 H         -0.8620034511       -0.6140391269        1.2580539656
 H         -0.8211008211       -1.5567383090       -0.2346151164
 H          1.7227056116       -0.8366941063        1.3435854211
 H          1.5777537516       -1.7915458914       -0.1347834693
 H          3.8859012380       -0.8118585659        0.1881208060
 H          3.1234417133       -0.2838964717       -1.3152924381
 H          3.1747961917        0.8031863816        0.0695149252
 H          0.6304024526        1.3573978682        1.2838274787
          21
        -24.06234035
 C         -3.3098926770       -0.3114549413        0.1035445884
 C         -1.9770840079        0.2281454666       -0.4005071948
 C         -0.7938550186       -0.5371258258        0.1890139894
 C          0.5515766238        0.0733209402       -0.2254824740
 H          0.5961145089        0.1434351315       -1.3186853776
 C          1.7246811876       -0.7809124706        0.2752835941
 C          3.0622795678       -0.2680510106       -0.2460069898
 O          0.6666515963        1.4146344003        0.2132169649
 H         -4.1351779056        0.2412425985       -0.3380039002
 H         -3.4185050560       -1.3614255600       -0.1590663203
 H         -3.3750279746       -0.2203371924        1.1854175056
 H         -1.9410228079        0.1552684574       -1.4896862086
 H         -1.8828029822        1.2844103148       -0.1404131499
 H         -0.8643876430       -0.5321374862        1.2798805995
 H         -0.8269157309       -1.5752415211       -0.1444848030
 H          1.7268953013       -0.7692807014        1.3680159251
 H          1.5720720574       -1.8105622336       -0.0498676195
 H          3.8841548500       -0.8237540621        0.1975789740
 H          3.1128623842       -0.3751593232       -1.3269901436
 H          3.1792333539        0.7857336416       -0.0042662825
 H          0.6358984358        1.4221390520        1.1805311462
