 xtb: 6.7.1 (edcfbbe)
          04092507313D

 38 37  0     0  0            999 V2000
    3.1289   -3.8771   -0.9348 C   0  0  0  0  0  0  0  0  0  0  0  0
    3.9546   -2.6029   -1.0099 C   0  0  0  0  0  0  0  0  0  0  0  0
    3.2204   -1.5631   -1.6862 O   0  0  0  0  0  0  0  0  0  0  0  0
    2.4135   -0.8027   -0.9866 C   0  0  0  0  0  0  0  0  0  0  0  0
    2.2584   -0.8740    0.2178 O   0  0  0  0  0  0  0  0  0  0  0  0
    1.6949    0.2166   -1.8454 C   0  0  0  0  0  0  0  0  0  0  0  0
    0.4151    0.6350   -1.1354 C   0  0  0  0  0  0  0  0  0  0  0  0
   -0.0465    1.4984   -1.6220 H   0  0  0  0  0  0  0  0  0  0  0  0
    0.6812    0.9879    0.3139 C   0  0  0  0  0  0  0  0  0  0  0  0
   -0.0267    0.5868    1.2228 O   0  0  0  0  0  0  0  0  0  0  0  0
    1.6503    1.8459    0.4532 O   0  0  0  0  0  0  0  0  0  0  0  0
    1.9620    2.2907    1.7913 C   0  0  0  0  0  0  0  0  0  0  0  0
    3.0186    3.3718    1.6886 C   0  0  0  0  0  0  0  0  0  0  0  0
   -0.7952   -0.7378   -1.1487 S   0  0  0  0  0  0  0  0  0  0  0  0
   -2.2068   -0.0247    0.2628 P   0  0  0  0  0  0  0  0  0  0  0  0
   -2.5184    1.9156    0.3941 S   0  0  0  0  0  0  0  0  0  0  0  0
   -3.5018   -0.7630   -0.3415 O   0  0  0  0  0  0  0  0  0  0  0  0
   -4.0669   -0.3660   -1.5926 C   0  0  0  0  0  0  0  0  0  0  0  0
   -2.2267   -0.9214    1.5726 O   0  0  0  0  0  0  0  0  0  0  0  0
   -1.8968   -0.4967    2.8948 C   0  0  0  0  0  0  0  0  0  0  0  0
    2.8345   -4.1916   -1.9320 H   0  0  0  0  0  0  0  0  0  0  0  0
    3.7169   -4.6612   -0.4694 H   0  0  0  0  0  0  0  0  0  0  0  0
    2.2327   -3.7079   -0.3411 H   0  0  0  0  0  0  0  0  0  0  0  0
    4.8500   -2.7432   -1.6152 H   0  0  0  0  0  0  0  0  0  0  0  0
    4.2193   -2.2518   -0.0086 H   0  0  0  0  0  0  0  0  0  0  0  0
    1.4819   -0.2092   -2.8245 H   0  0  0  0  0  0  0  0  0  0  0  0
    2.3454    1.0855   -1.9651 H   0  0  0  0  0  0  0  0  0  0  0  0
    1.0400    2.6590    2.2520 H   0  0  0  0  0  0  0  0  0  0  0  0
    2.3141    1.4226    2.3568 H   0  0  0  0  0  0  0  0  0  0  0  0
    2.6463    4.2002    1.0937 H   0  0  0  0  0  0  0  0  0  0  0  0
    3.2606    3.7272    2.6845 H   0  0  0  0  0  0  0  0  0  0  0  0
    3.9149    2.9751    1.2221 H   0  0  0  0  0  0  0  0  0  0  0  0
   -3.4218   -0.6787   -2.4142 H   0  0  0  0  0  0  0  0  0  0  0  0
   -4.2009    0.7177   -1.6152 H   0  0  0  0  0  0  0  0  0  0  0  0
   -5.0296   -0.8674   -1.6498 H   0  0  0  0  0  0  0  0  0  0  0  0
   -2.5875   -1.0190    3.5535 H   0  0  0  0  0  0  0  0  0  0  0  0
   -2.0196    0.5831    2.9911 H   0  0  0  0  0  0  0  0  0  0  0  0
   -0.8656   -0.7678    3.1147 H   0  0  0  0  0  0  0  0  0  0  0  0
  1  2  1  0  0  0  0
  2  3  1  0  0  0  0
  3  4  4  0  0  0  0
  4  5  2  0  0  0  0
  4  6  1  0  0  0  0
  6  7  1  0  0  0  0
  7  8  1  0  0  0  0
  7  9  1  0  0  0  0
  9 10  2  0  0  0  0
  9 11  4  0  0  0  0
 11 12  1  0  0  0  0
 12 13  1  0  0  0  0
  7 14  1  0  0  0  0
 14 15  1  0  0  0  0
 15 16  2  0  0  0  0
 15 17  1  0  0  0  0
 17 18  1  0  0  0  0
 15 19  2  0  0  0  0
 19 20  1  0  0  0  0
  1 21  1  0  0  0  0
  1 22  1  0  0  0  0
  1 23  1  0  0  0  0
  2 24  1  0  0  0  0
  2 25  1  0  0  0  0
  6 26  1  0  0  0  0
  6 27  1  0  0  0  0
 12 28  1  0  0  0  0
 12 29  1  0  0  0  0
 13 30  1  0  0  0  0
 13 31  1  0  0  0  0
 13 32  1  0  0  0  0
 18 33  1  0  0  0  0
 18 34  1  0  0  0  0
 18 35  1  0  0  0  0
 20 36  1  0  0  0  0
 20 37  1  0  0  0  0
 20 38  1  0  0  0  0
M  END
