 xtb: 6.7.1 (edcfbbe)
          04092505213D

 41 40  0     0  0            999 V2000
    4.0198    0.2804   -1.6699 C   0  0  0  0  0  0  0  0  0  0  0  0
    2.5977    0.7947   -1.6483 C   0  0  0  0  0  0  0  0  0  0  0  0
    2.0876    1.0144   -0.3091 O   0  0  0  0  0  0  0  0  0  0  0  0
    2.0882   -0.0077    0.8935 P   0  0  0  0  0  0  0  0  0  0  0  0
    0.9473    0.6318    2.3520 S   0  0  0  0  0  0  0  0  0  0  0  0
    3.6247   -0.1480    1.2633 O   0  0  0  0  0  0  0  0  0  0  0  0
    4.0697   -0.6374    2.5402 C   0  0  0  0  0  0  0  0  0  0  0  0
    3.7239   -2.0976    2.7491 C   0  0  0  0  0  0  0  0  0  0  0  0
    1.5568   -1.9024    0.0743 S   0  0  0  0  0  0  0  0  0  0  0  0
   -0.2183   -1.6179   -0.0047 C   0  0  0  0  0  0  0  0  0  0  0  0
   -0.6828   -0.7072   -1.5309 S   0  0  0  0  0  0  0  0  0  0  0  0
   -2.3350    0.3830   -0.7685 P   0  0  0  0  0  0  0  0  0  0  0  0
   -3.4062    1.2681   -2.1455 S   0  0  0  0  0  0  0  0  0  0  0  0
   -1.7098    1.3006    0.3670 O   0  0  0  0  0  0  0  0  0  0  0  0
   -1.0639    2.5384    0.0163 C   0  0  0  0  0  0  0  0  0  0  0  0
   -2.0054    3.7051    0.2335 C   0  0  0  0  0  0  0  0  0  0  0  0
   -3.0914   -0.6153    0.2004 O   0  0  0  0  0  0  0  0  0  0  0  0
   -4.2421   -1.3583   -0.2475 C   0  0  0  0  0  0  0  0  0  0  0  0
   -3.8541   -2.5101   -1.1535 C   0  0  0  0  0  0  0  0  0  0  0  0
    4.6679    0.9368   -1.0952 H   0  0  0  0  0  0  0  0  0  0  0  0
    4.0675   -0.7215   -1.2491 H   0  0  0  0  0  0  0  0  0  0  0  0
    4.3633    0.2474   -2.6994 H   0  0  0  0  0  0  0  0  0  0  0  0
    1.9226    0.1017   -2.1595 H   0  0  0  0  0  0  0  0  0  0  0  0
    2.5201    1.7825   -2.1054 H   0  0  0  0  0  0  0  0  0  0  0  0
    5.1485   -0.4782    2.5166 H   0  0  0  0  0  0  0  0  0  0  0  0
    3.6198   -0.0198    3.3239 H   0  0  0  0  0  0  0  0  0  0  0  0
    2.6457   -2.2158    2.8443 H   0  0  0  0  0  0  0  0  0  0  0  0
    4.0699   -2.6937    1.9087 H   0  0  0  0  0  0  0  0  0  0  0  0
    4.1966   -2.4500    3.6603 H   0  0  0  0  0  0  0  0  0  0  0  0
   -0.5349   -1.0354    0.8637 H   0  0  0  0  0  0  0  0  0  0  0  0
   -0.6917   -2.5953   -0.0283 H   0  0  0  0  0  0  0  0  0  0  0  0
   -0.1913    2.6021    0.6710 H   0  0  0  0  0  0  0  0  0  0  0  0
   -0.7306    2.4923   -1.0266 H   0  0  0  0  0  0  0  0  0  0  0  0
   -2.3580    3.7065    1.2610 H   0  0  0  0  0  0  0  0  0  0  0  0
   -1.4794    4.6321    0.0299 H   0  0  0  0  0  0  0  0  0  0  0  0
   -2.8605    3.6242   -0.4345 H   0  0  0  0  0  0  0  0  0  0  0  0
   -4.7062   -1.7070    0.6760 H   0  0  0  0  0  0  0  0  0  0  0  0
   -4.9182   -0.6724   -0.7679 H   0  0  0  0  0  0  0  0  0  0  0  0
   -3.1686   -3.1833   -0.6456 H   0  0  0  0  0  0  0  0  0  0  0  0
   -4.7477   -3.0583   -1.4343 H   0  0  0  0  0  0  0  0  0  0  0  0
   -3.3779   -2.1285   -2.0564 H   0  0  0  0  0  0  0  0  0  0  0  0
  1  2  1  0  0  0  0
  2  3  1  0  0  0  0
  3  4  2  0  0  0  0
  4  5  2  0  0  0  0
  4  6  2  0  0  0  0
  6  7  1  0  0  0  0
  7  8  1  0  0  0  0
  4  9  1  0  0  0  0
  9 10  1  0  0  0  0
 10 11  1  0  0  0  0
 11 12  1  0  0  0  0
 12 13  2  0  0  0  0
 12 14  2  0  0  0  0
 14 15  1  0  0  0  0
 15 16  1  0  0  0  0
 12 17  2  0  0  0  0
 17 18  1  0  0  0  0
 18 19  1  0  0  0  0
  1 20  1  0  0  0  0
  1 21  1  0  0  0  0
  1 22  1  0  0  0  0
  2 23  1  0  0  0  0
  2 24  1  0  0  0  0
  7 25  1  0  0  0  0
  7 26  1  0  0  0  0
  8 27  1  0  0  0  0
  8 28  1  0  0  0  0
  8 29  1  0  0  0  0
 10 30  1  0  0  0  0
 10 31  1  0  0  0  0
 15 32  1  0  0  0  0
 15 33  1  0  0  0  0
 16 34  1  0  0  0  0
 16 35  1  0  0  0  0
 16 36  1  0  0  0  0
 18 37  1  0  0  0  0
 18 38  1  0  0  0  0
 19 39  1  0  0  0  0
 19 40  1  0  0  0  0
 19 41  1  0  0  0  0
M  END
