 xtb: 6.7.1 (edcfbbe)
          04092505213D

 41 40  0     0  0            999 V2000
    6.0947   -1.4791   -0.3624 C   0  0  0  0  0  0  0  0  0  0  0  0
    4.6518   -1.4341   -0.8221 C   0  0  0  0  0  0  0  0  0  0  0  0
    4.0073   -0.3334   -0.1451 O   0  0  0  0  0  0  0  0  0  0  0  0
    2.6303    0.2657   -0.6620 P   0  0  0  0  0  0  0  0  0  0  0  0
    2.5719    0.8075   -2.5401 S   0  0  0  0  0  0  0  0  0  0  0  0
    2.4026    1.4744    0.3152 O   0  0  0  0  0  0  0  0  0  0  0  0
    2.4207    1.3460    1.7620 C   0  0  0  0  0  0  0  0  0  0  0  0
    1.5318    2.4292    2.3358 C   0  0  0  0  0  0  0  0  0  0  0  0
    1.2352   -1.2545   -0.1276 S   0  0  0  0  0  0  0  0  0  0  0  0
   -0.1400   -0.5989   -1.0942 C   0  0  0  0  0  0  0  0  0  0  0  0
   -0.8460    0.9131   -0.3524 S   0  0  0  0  0  0  0  0  0  0  0  0
   -2.7226    0.1340    0.2314 P   0  0  0  0  0  0  0  0  0  0  0  0
   -3.8926    1.3309    1.2448 S   0  0  0  0  0  0  0  0  0  0  0  0
   -2.4263   -1.2734    0.9207 O   0  0  0  0  0  0  0  0  0  0  0  0
   -2.3005   -1.4118    2.3459 C   0  0  0  0  0  0  0  0  0  0  0  0
   -0.9944   -0.8374    2.8546 C   0  0  0  0  0  0  0  0  0  0  0  0
   -3.2339   -0.3232   -1.2017 O   0  0  0  0  0  0  0  0  0  0  0  0
   -4.6348   -0.5321   -1.4767 C   0  0  0  0  0  0  0  0  0  0  0  0
   -5.1917   -1.7196   -0.7200 C   0  0  0  0  0  0  0  0  0  0  0  0
    6.5987   -2.3054   -0.8528 H   0  0  0  0  0  0  0  0  0  0  0  0
    6.5969   -0.5504   -0.6187 H   0  0  0  0  0  0  0  0  0  0  0  0
    6.1377   -1.6178    0.7137 H   0  0  0  0  0  0  0  0  0  0  0  0
    4.1185   -2.3516   -0.5604 H   0  0  0  0  0  0  0  0  0  0  0  0
    4.5780   -1.2698   -1.9020 H   0  0  0  0  0  0  0  0  0  0  0  0
    2.0631    0.3481    2.0313 H   0  0  0  0  0  0  0  0  0  0  0  0
    3.4564    1.4594    2.0861 H   0  0  0  0  0  0  0  0  0  0  0  0
    1.9031    3.4082    2.0476 H   0  0  0  0  0  0  0  0  0  0  0  0
    0.5178    2.3236    1.9570 H   0  0  0  0  0  0  0  0  0  0  0  0
    1.5240    2.3497    3.4180 H   0  0  0  0  0  0  0  0  0  0  0  0
   -0.9046   -1.3682   -1.1446 H   0  0  0  0  0  0  0  0  0  0  0  0
    0.2288   -0.3319   -2.0852 H   0  0  0  0  0  0  0  0  0  0  0  0
   -3.1512   -0.9091    2.8176 H   0  0  0  0  0  0  0  0  0  0  0  0
   -2.3607   -2.4878    2.5137 H   0  0  0  0  0  0  0  0  0  0  0  0
   -0.1548   -1.3071    2.3474 H   0  0  0  0  0  0  0  0  0  0  0  0
   -0.9695    0.2366    2.6712 H   0  0  0  0  0  0  0  0  0  0  0  0
   -0.9154   -1.0136    3.9223 H   0  0  0  0  0  0  0  0  0  0  0  0
   -5.1775    0.3814   -1.2140 H   0  0  0  0  0  0  0  0  0  0  0  0
   -4.6669   -0.6851   -2.5563 H   0  0  0  0  0  0  0  0  0  0  0  0
   -4.5925   -2.6057   -0.9120 H   0  0  0  0  0  0  0  0  0  0  0  0
   -5.1859   -1.5123    0.3492 H   0  0  0  0  0  0  0  0  0  0  0  0
   -6.2140   -1.8990   -1.0380 H   0  0  0  0  0  0  0  0  0  0  0  0
  1  2  1  0  0  0  0
  2  3  1  0  0  0  0
  3  4  2  0  0  0  0
  4  5  2  0  0  0  0
  4  6  2  0  0  0  0
  6  7  1  0  0  0  0
  7  8  1  0  0  0  0
  4  9  1  0  0  0  0
  9 10  1  0  0  0  0
 10 11  1  0  0  0  0
 11 12  1  0  0  0  0
 12 13  2  0  0  0  0
 12 14  2  0  0  0  0
 14 15  1  0  0  0  0
 15 16  1  0  0  0  0
 12 17  2  0  0  0  0
 17 18  1  0  0  0  0
 18 19  1  0  0  0  0
  1 20  1  0  0  0  0
  1 21  1  0  0  0  0
  1 22  1  0  0  0  0
  2 23  1  0  0  0  0
  2 24  1  0  0  0  0
  7 25  1  0  0  0  0
  7 26  1  0  0  0  0
  8 27  1  0  0  0  0
  8 28  1  0  0  0  0
  8 29  1  0  0  0  0
 10 30  1  0  0  0  0
 10 31  1  0  0  0  0
 15 32  1  0  0  0  0
 15 33  1  0  0  0  0
 16 34  1  0  0  0  0
 16 35  1  0  0  0  0
 16 36  1  0  0  0  0
 18 37  1  0  0  0  0
 18 38  1  0  0  0  0
 19 39  1  0  0  0  0
 19 40  1  0  0  0  0
 19 41  1  0  0  0  0
M  END
