 xtb: 6.7.1 (edcfbbe)
          04092505213D

 41 40  0     0  0            999 V2000
    3.1815    1.3868   -2.5784 C   0  0  0  0  0  0  0  0  0  0  0  0
    2.5999    0.0182   -2.2867 C   0  0  0  0  0  0  0  0  0  0  0  0
    2.9258   -0.4047   -0.9476 O   0  0  0  0  0  0  0  0  0  0  0  0
    2.0455   -0.1195    0.3424 P   0  0  0  0  0  0  0  0  0  0  0  0
    1.5909    1.7364    0.7562 S   0  0  0  0  0  0  0  0  0  0  0  0
    2.9486   -0.7071    1.4910 O   0  0  0  0  0  0  0  0  0  0  0  0
    3.6096   -1.9993    1.4450 C   0  0  0  0  0  0  0  0  0  0  0  0
    2.9054   -2.9934    2.3476 C   0  0  0  0  0  0  0  0  0  0  0  0
    0.4715   -1.5423    0.0876 S   0  0  0  0  0  0  0  0  0  0  0  0
   -0.4538   -1.2326    1.6110 C   0  0  0  0  0  0  0  0  0  0  0  0
   -1.3651    0.3479    1.6783 S   0  0  0  0  0  0  0  0  0  0  0  0
   -2.1175    0.4759   -0.2999 P   0  0  0  0  0  0  0  0  0  0  0  0
   -0.9687    0.8635   -1.8497 S   0  0  0  0  0  0  0  0  0  0  0  0
   -3.3039    1.5141   -0.1085 O   0  0  0  0  0  0  0  0  0  0  0  0
   -3.2081    2.7769    0.5729 C   0  0  0  0  0  0  0  0  0  0  0  0
   -2.0457    3.6226    0.0936 C   0  0  0  0  0  0  0  0  0  0  0  0
   -2.9439   -0.8645   -0.4312 O   0  0  0  0  0  0  0  0  0  0  0  0
   -2.9539   -1.7460   -1.5736 C   0  0  0  0  0  0  0  0  0  0  0  0
   -2.5531   -3.1435   -1.1447 C   0  0  0  0  0  0  0  0  0  0  0  0
    2.9806    1.6445   -3.6132 H   0  0  0  0  0  0  0  0  0  0  0  0
    2.7205    2.1338   -1.9354 H   0  0  0  0  0  0  0  0  0  0  0  0
    4.2540    1.3854   -2.4040 H   0  0  0  0  0  0  0  0  0  0  0  0
    3.0439   -0.7477   -2.9255 H   0  0  0  0  0  0  0  0  0  0  0  0
    1.5151    0.0235   -2.4200 H   0  0  0  0  0  0  0  0  0  0  0  0
    3.6422   -2.3483    0.4119 H   0  0  0  0  0  0  0  0  0  0  0  0
    4.6226   -1.7959    1.7953 H   0  0  0  0  0  0  0  0  0  0  0  0
    1.9234   -3.2438    1.9545 H   0  0  0  0  0  0  0  0  0  0  0  0
    3.5024   -3.8982    2.4034 H   0  0  0  0  0  0  0  0  0  0  0  0
    2.7972   -2.5780    3.3459 H   0  0  0  0  0  0  0  0  0  0  0  0
    0.2276   -1.2074    2.4602 H   0  0  0  0  0  0  0  0  0  0  0  0
   -1.1671   -2.0491    1.7011 H   0  0  0  0  0  0  0  0  0  0  0  0
   -4.1644    3.2573    0.3579 H   0  0  0  0  0  0  0  0  0  0  0  0
   -3.1250    2.5804    1.6459 H   0  0  0  0  0  0  0  0  0  0  0  0
   -2.0949    3.7603   -0.9844 H   0  0  0  0  0  0  0  0  0  0  0  0
   -2.0782    4.5914    0.5815 H   0  0  0  0  0  0  0  0  0  0  0  0
   -1.0965    3.1426    0.3372 H   0  0  0  0  0  0  0  0  0  0  0  0
   -3.9763   -1.7254   -1.9559 H   0  0  0  0  0  0  0  0  0  0  0  0
   -2.2731   -1.3491   -2.3346 H   0  0  0  0  0  0  0  0  0  0  0  0
   -2.6589   -3.8138   -1.9913 H   0  0  0  0  0  0  0  0  0  0  0  0
   -1.5176   -3.1547   -0.8109 H   0  0  0  0  0  0  0  0  0  0  0  0
   -3.1954   -3.4822   -0.3368 H   0  0  0  0  0  0  0  0  0  0  0  0
  1  2  1  0  0  0  0
  2  3  1  0  0  0  0
  3  4  2  0  0  0  0
  4  5  2  0  0  0  0
  4  6  2  0  0  0  0
  6  7  1  0  0  0  0
  7  8  1  0  0  0  0
  4  9  1  0  0  0  0
  9 10  1  0  0  0  0
 10 11  1  0  0  0  0
 11 12  1  0  0  0  0
 12 13  2  0  0  0  0
 12 14  2  0  0  0  0
 14 15  1  0  0  0  0
 15 16  1  0  0  0  0
 12 17  2  0  0  0  0
 17 18  1  0  0  0  0
 18 19  1  0  0  0  0
  1 20  1  0  0  0  0
  1 21  1  0  0  0  0
  1 22  1  0  0  0  0
  2 23  1  0  0  0  0
  2 24  1  0  0  0  0
  7 25  1  0  0  0  0
  7 26  1  0  0  0  0
  8 27  1  0  0  0  0
  8 28  1  0  0  0  0
  8 29  1  0  0  0  0
 10 30  1  0  0  0  0
 10 31  1  0  0  0  0
 15 32  1  0  0  0  0
 15 33  1  0  0  0  0
 16 34  1  0  0  0  0
 16 35  1  0  0  0  0
 16 36  1  0  0  0  0
 18 37  1  0  0  0  0
 18 38  1  0  0  0  0
 19 39  1  0  0  0  0
 19 40  1  0  0  0  0
 19 41  1  0  0  0  0
M  END
