 xtb: 6.7.1 (edcfbbe)
          04092505213D

 41 40  0     0  0            999 V2000
    1.8644    0.9500   -2.4823 C   0  0  0  0  0  0  0  0  0  0  0  0
    3.0768    1.3697   -1.6791 C   0  0  0  0  0  0  0  0  0  0  0  0
    3.3086    0.5140   -0.5472 O   0  0  0  0  0  0  0  0  0  0  0  0
    2.3200    0.4329    0.6976 P   0  0  0  0  0  0  0  0  0  0  0  0
    1.4972    2.1059    1.2720 S   0  0  0  0  0  0  0  0  0  0  0  0
    3.2648   -0.1286    1.8306 O   0  0  0  0  0  0  0  0  0  0  0  0
    4.0586   -1.3363    1.6918 C   0  0  0  0  0  0  0  0  0  0  0  0
    3.4973   -2.4332    2.5743 C   0  0  0  0  0  0  0  0  0  0  0  0
    1.0227   -1.1864    0.2064 S   0  0  0  0  0  0  0  0  0  0  0  0
   -0.2207   -0.8602    1.5011 C   0  0  0  0  0  0  0  0  0  0  0  0
   -1.9028   -1.2433    0.9640 S   0  0  0  0  0  0  0  0  0  0  0  0
   -1.9735   -0.1122   -0.8547 P   0  0  0  0  0  0  0  0  0  0  0  0
   -1.2765   -0.9948   -2.4592 S   0  0  0  0  0  0  0  0  0  0  0  0
   -1.2435    1.2540   -0.5357 O   0  0  0  0  0  0  0  0  0  0  0  0
   -1.8810    2.4441   -0.0072 C   0  0  0  0  0  0  0  0  0  0  0  0
   -2.3748    2.2670    1.4125 C   0  0  0  0  0  0  0  0  0  0  0  0
   -3.4983    0.3190   -0.9704 O   0  0  0  0  0  0  0  0  0  0  0  0
   -4.4739   -0.5206   -1.6109 C   0  0  0  0  0  0  0  0  0  0  0  0
   -4.7438   -1.7800   -0.8141 C   0  0  0  0  0  0  0  0  0  0  0  0
    1.9258   -0.1002   -2.7596 H   0  0  0  0  0  0  0  0  0  0  0  0
    0.9547    1.0984   -1.9006 H   0  0  0  0  0  0  0  0  0  0  0  0
    1.7989    1.5512   -3.3834 H   0  0  0  0  0  0  0  0  0  0  0  0
    2.9610    2.3963   -1.3175 H   0  0  0  0  0  0  0  0  0  0  0  0
    3.9946    1.2816   -2.2624 H   0  0  0  0  0  0  0  0  0  0  0  0
    4.0761   -1.6362    0.6420 H   0  0  0  0  0  0  0  0  0  0  0  0
    5.0621   -1.0468    2.0072 H   0  0  0  0  0  0  0  0  0  0  0  0
    2.5252   -2.7571    2.2106 H   0  0  0  0  0  0  0  0  0  0  0  0
    4.1771   -3.2792    2.5615 H   0  0  0  0  0  0  0  0  0  0  0  0
    3.3937   -2.0723    3.5938 H   0  0  0  0  0  0  0  0  0  0  0  0
   -0.1477    0.1941    1.7768 H   0  0  0  0  0  0  0  0  0  0  0  0
   -0.0353   -1.5043    2.3577 H   0  0  0  0  0  0  0  0  0  0  0  0
   -1.0876    3.1921   -0.0570 H   0  0  0  0  0  0  0  0  0  0  0  0
   -2.6994    2.7129   -0.6765 H   0  0  0  0  0  0  0  0  0  0  0  0
   -1.5422    2.0612    2.0812 H   0  0  0  0  0  0  0  0  0  0  0  0
   -2.8535    3.1878    1.7307 H   0  0  0  0  0  0  0  0  0  0  0  0
   -3.0958    1.4544    1.4674 H   0  0  0  0  0  0  0  0  0  0  0  0
   -5.3590    0.1132   -1.6801 H   0  0  0  0  0  0  0  0  0  0  0  0
   -4.1117   -0.7693   -2.6135 H   0  0  0  0  0  0  0  0  0  0  0  0
   -5.5483   -2.3375   -1.2828 H   0  0  0  0  0  0  0  0  0  0  0  0
   -3.8493   -2.4020   -0.7924 H   0  0  0  0  0  0  0  0  0  0  0  0
   -5.0211   -1.5331    0.2074 H   0  0  0  0  0  0  0  0  0  0  0  0
  1  2  1  0  0  0  0
  2  3  1  0  0  0  0
  3  4  2  0  0  0  0
  4  5  2  0  0  0  0
  4  6  2  0  0  0  0
  6  7  1  0  0  0  0
  7  8  1  0  0  0  0
  4  9  1  0  0  0  0
  9 10  1  0  0  0  0
 10 11  1  0  0  0  0
 11 12  1  0  0  0  0
 12 13  2  0  0  0  0
 12 14  2  0  0  0  0
 14 15  1  0  0  0  0
 15 16  1  0  0  0  0
 12 17  2  0  0  0  0
 17 18  1  0  0  0  0
 18 19  1  0  0  0  0
  1 20  1  0  0  0  0
  1 21  1  0  0  0  0
  1 22  1  0  0  0  0
  2 23  1  0  0  0  0
  2 24  1  0  0  0  0
  7 25  1  0  0  0  0
  7 26  1  0  0  0  0
  8 27  1  0  0  0  0
  8 28  1  0  0  0  0
  8 29  1  0  0  0  0
 10 30  1  0  0  0  0
 10 31  1  0  0  0  0
 15 32  1  0  0  0  0
 15 33  1  0  0  0  0
 16 34  1  0  0  0  0
 16 35  1  0  0  0  0
 16 36  1  0  0  0  0
 18 37  1  0  0  0  0
 18 38  1  0  0  0  0
 19 39  1  0  0  0  0
 19 40  1  0  0  0  0
 19 41  1  0  0  0  0
M  END
