  18
 
 C         -3.1874770449        0.5717549179       -0.0080483035
 O         -2.2785502502       -0.5082105482       -0.0260420373
 C         -0.9301888967       -0.2235568744       -0.0053150936
 C         -0.0766995582       -1.3253665333        0.0012199846
 C          1.2898377501       -1.1562318199        0.0216902915
 C          1.8535074208        0.1230729974        0.0379414602
 C          0.9905454456        1.2174871670        0.0260640140
 C         -0.3832047945        1.0518900320        0.0060549811
 N          3.2190562137        0.2943730244        0.1398398945
 H         -4.1755765856        0.1163609114       -0.0088885363
 H         -3.0734243361        1.2014711359       -0.8952410539
 H         -3.0640762541        1.1787698622        0.8936239267
 H         -0.5132714319       -2.3119594968       -0.0120657231
 H          1.9354992660       -2.0218162161        0.0279018360
 H          1.4006596850        2.2167611141        0.0360068659
 H         -1.0120898217        1.9279928504       -0.0030181044
 H          3.5702266470        1.1923211544       -0.1507446212
 H          3.7805136751       -0.4890442769       -0.1499712500
          18
        -26.55533593
 C         -3.2036720598       -0.5626358618        0.0082371896
 O         -2.2972298684        0.5193708110        0.0020891764
 C         -0.9483428096        0.2383509618       -0.0012659593
 C         -0.3978889418       -1.0356852628       -0.0062710023
 C          0.9764575838       -1.1977448358       -0.0122277764
 C          1.8359531182       -0.1008802057       -0.0110349234
 C          1.2691559328        1.1770960996       -0.0084190868
 C         -0.0979382179        1.3426463617       -0.0027557960
 N          3.2042145257       -0.2688079170        0.0615073442
 H         -3.0921221504       -1.1790821582       -0.8886833050
 H         -4.1924485245       -0.1089907293        0.0181463852
 H         -3.0757244220       -1.1828018727        0.9002266009
 H         -1.0249890182       -1.9130129637       -0.0084370336
 H          1.3892986690       -2.1958140105       -0.0155024756
 H          1.9127704593        2.0441066573       -0.0084134607
 H         -0.5375585022        2.3278893381       -0.0015857578
 H          3.5504536123       -1.1641173044       -0.2421973102
 H          3.7560642154        0.5176220270       -0.2394362924
