 xtb: 6.7.1 (edcfbbe)
          04092505213D

 41 40  0     0  0            999 V2000
    4.0310    1.9061   -1.4217 C   0  0  0  0  0  0  0  0  0  0  0  0
    2.8085    1.1531   -1.9056 C   0  0  0  0  0  0  0  0  0  0  0  0
    2.5436   -0.0053   -1.0955 O   0  0  0  0  0  0  0  0  0  0  0  0
    2.0269    0.1027    0.4086 P   0  0  0  0  0  0  0  0  0  0  0  0
    1.0524    1.6971    0.9610 S   0  0  0  0  0  0  0  0  0  0  0  0
    3.3264   -0.0285    1.3206 O   0  0  0  0  0  0  0  0  0  0  0  0
    4.2643   -1.1215    1.1818 C   0  0  0  0  0  0  0  0  0  0  0  0
    4.1896   -2.0292    2.3936 C   0  0  0  0  0  0  0  0  0  0  0  0
    1.0756   -1.7820    0.5576 S   0  0  0  0  0  0  0  0  0  0  0  0
   -0.4077   -1.3024    1.5044 C   0  0  0  0  0  0  0  0  0  0  0  0
   -1.9546   -1.6641    0.6325 S   0  0  0  0  0  0  0  0  0  0  0  0
   -2.0293   -0.0440   -0.6999 P   0  0  0  0  0  0  0  0  0  0  0  0
   -0.5928    0.2759   -1.9890 S   0  0  0  0  0  0  0  0  0  0  0  0
   -2.2822    1.1214    0.3665 O   0  0  0  0  0  0  0  0  0  0  0  0
   -2.2676    2.5088   -0.0272 C   0  0  0  0  0  0  0  0  0  0  0  0
   -2.2497    3.3472    1.2331 C   0  0  0  0  0  0  0  0  0  0  0  0
   -3.3834   -0.2365   -1.5021 O   0  0  0  0  0  0  0  0  0  0  0  0
   -4.6624   -0.4617   -0.8566 C   0  0  0  0  0  0  0  0  0  0  0  0
   -5.0394   -1.9279   -0.9181 C   0  0  0  0  0  0  0  0  0  0  0  0
    4.9015    1.2550   -1.4258 H   0  0  0  0  0  0  0  0  0  0  0  0
    4.2115    2.7538   -2.0750 H   0  0  0  0  0  0  0  0  0  0  0  0
    3.8633    2.2689   -0.4074 H   0  0  0  0  0  0  0  0  0  0  0  0
    2.9445    0.7457   -2.9084 H   0  0  0  0  0  0  0  0  0  0  0  0
    1.9201    1.7924   -1.8974 H   0  0  0  0  0  0  0  0  0  0  0  0
    4.0461   -1.6680    0.2595 H   0  0  0  0  0  0  0  0  0  0  0  0
    5.2447   -0.6476    1.1039 H   0  0  0  0  0  0  0  0  0  0  0  0
    3.2242   -2.5267    2.4371 H   0  0  0  0  0  0  0  0  0  0  0  0
    4.9723   -2.7778    2.3240 H   0  0  0  0  0  0  0  0  0  0  0  0
    4.3287   -1.4459    3.2996 H   0  0  0  0  0  0  0  0  0  0  0  0
   -0.3561   -0.2353    1.7344 H   0  0  0  0  0  0  0  0  0  0  0  0
   -0.4385   -1.9052    2.4079 H   0  0  0  0  0  0  0  0  0  0  0  0
   -1.3757    2.6881   -0.6362 H   0  0  0  0  0  0  0  0  0  0  0  0
   -3.1572    2.7032   -0.6332 H   0  0  0  0  0  0  0  0  0  0  0  0
   -3.0973    3.0931    1.8625 H   0  0  0  0  0  0  0  0  0  0  0  0
   -1.3286    3.1633    1.7806 H   0  0  0  0  0  0  0  0  0  0  0  0
   -2.2990    4.3963    0.9615 H   0  0  0  0  0  0  0  0  0  0  0  0
   -4.6103   -0.1072    0.1759 H   0  0  0  0  0  0  0  0  0  0  0  0
   -5.3653    0.1504   -1.4247 H   0  0  0  0  0  0  0  0  0  0  0  0
   -5.0289   -2.2699   -1.9492 H   0  0  0  0  0  0  0  0  0  0  0  0
   -4.3369   -2.5264   -0.3420 H   0  0  0  0  0  0  0  0  0  0  0  0
   -6.0360   -2.0545   -0.5074 H   0  0  0  0  0  0  0  0  0  0  0  0
  1  2  1  0  0  0  0
  2  3  1  0  0  0  0
  3  4  1  0  0  0  0
  4  5  2  0  0  0  0
  4  6  2  0  0  0  0
  6  7  1  0  0  0  0
  7  8  1  0  0  0  0
  4  9  1  0  0  0  0
  9 10  1  0  0  0  0
 10 11  1  0  0  0  0
 11 12  1  0  0  0  0
 12 13  2  0  0  0  0
 12 14  1  0  0  0  0
 14 15  1  0  0  0  0
 15 16  1  0  0  0  0
 12 17  2  0  0  0  0
 17 18  1  0  0  0  0
 18 19  1  0  0  0  0
  1 20  1  0  0  0  0
  1 21  1  0  0  0  0
  1 22  1  0  0  0  0
  2 23  1  0  0  0  0
  2 24  1  0  0  0  0
  7 25  1  0  0  0  0
  7 26  1  0  0  0  0
  8 27  1  0  0  0  0
  8 28  1  0  0  0  0
  8 29  1  0  0  0  0
 10 30  1  0  0  0  0
 10 31  1  0  0  0  0
 15 32  1  0  0  0  0
 15 33  1  0  0  0  0
 16 34  1  0  0  0  0
 16 35  1  0  0  0  0
 16 36  1  0  0  0  0
 18 37  1  0  0  0  0
 18 38  1  0  0  0  0
 19 39  1  0  0  0  0
 19 40  1  0  0  0  0
 19 41  1  0  0  0  0
M  END
