 xtb: 6.7.1 (edcfbbe)
          04092505203D

 41 40  0     0  0            999 V2000
    4.0796   -0.3139   -2.2662 C   0  0  0  0  0  0  0  0  0  0  0  0
    4.3551   -0.5670   -0.7973 C   0  0  0  0  0  0  0  0  0  0  0  0
    3.1440   -0.7067   -0.0390 O   0  0  0  0  0  0  0  0  0  0  0  0
    2.1896    0.5396    0.2598 P   0  0  0  0  0  0  0  0  0  0  0  0
    3.1120    2.2394    0.5665 S   0  0  0  0  0  0  0  0  0  0  0  0
    1.3089   -0.0087    1.4571 O   0  0  0  0  0  0  0  0  0  0  0  0
    1.7105    0.1501    2.8350 C   0  0  0  0  0  0  0  0  0  0  0  0
    2.9491   -0.6559    3.1626 C   0  0  0  0  0  0  0  0  0  0  0  0
    0.7349    0.5113   -1.2788 S   0  0  0  0  0  0  0  0  0  0  0  0
    0.2228   -1.2289   -1.1435 C   0  0  0  0  0  0  0  0  0  0  0  0
   -0.9524   -1.5450    0.1945 S   0  0  0  0  0  0  0  0  0  0  0  0
   -2.4607   -0.2043   -0.4816 P   0  0  0  0  0  0  0  0  0  0  0  0
   -2.6848   -0.0645   -2.4189 S   0  0  0  0  0  0  0  0  0  0  0  0
   -2.1346    1.2176    0.1223 O   0  0  0  0  0  0  0  0  0  0  0  0
   -1.9481    1.4570    1.5383 C   0  0  0  0  0  0  0  0  0  0  0  0
   -1.0896    2.6950    1.6957 C   0  0  0  0  0  0  0  0  0  0  0  0
   -3.7167   -0.6211    0.4014 O   0  0  0  0  0  0  0  0  0  0  0  0
   -4.2299   -1.9598    0.5470 C   0  0  0  0  0  0  0  0  0  0  0  0
   -4.5263   -2.6243   -0.7806 C   0  0  0  0  0  0  0  0  0  0  0  0
    3.4584   -1.1027   -2.6830 H   0  0  0  0  0  0  0  0  0  0  0  0
    3.5648    0.6391   -2.3885 H   0  0  0  0  0  0  0  0  0  0  0  0
    5.0197   -0.2757   -2.8070 H   0  0  0  0  0  0  0  0  0  0  0  0
    4.9369    0.2572   -0.3721 H   0  0  0  0  0  0  0  0  0  0  0  0
    4.8779   -1.5115   -0.6410 H   0  0  0  0  0  0  0  0  0  0  0  0
    1.8805    1.2147    3.0237 H   0  0  0  0  0  0  0  0  0  0  0  0
    0.8436   -0.1969    3.3990 H   0  0  0  0  0  0  0  0  0  0  0  0
    2.8088   -1.6946    2.8753 H   0  0  0  0  0  0  0  0  0  0  0  0
    3.8071   -0.2523    2.6270 H   0  0  0  0  0  0  0  0  0  0  0  0
    3.1419   -0.5983    4.2293 H   0  0  0  0  0  0  0  0  0  0  0  0
    1.0894   -1.8578   -0.9558 H   0  0  0  0  0  0  0  0  0  0  0  0
   -0.2524   -1.4641   -2.0953 H   0  0  0  0  0  0  0  0  0  0  0  0
   -2.9354    1.5958    1.9827 H   0  0  0  0  0  0  0  0  0  0  0  0
   -1.4694    0.5788    1.9831 H   0  0  0  0  0  0  0  0  0  0  0  0
   -1.5568    3.5380    1.1947 H   0  0  0  0  0  0  0  0  0  0  0  0
   -0.9730    2.9206    2.7509 H   0  0  0  0  0  0  0  0  0  0  0  0
   -0.1068    2.5385    1.2532 H   0  0  0  0  0  0  0  0  0  0  0  0
   -3.5008   -2.5421    1.1171 H   0  0  0  0  0  0  0  0  0  0  0  0
   -5.1382   -1.8214    1.1361 H   0  0  0  0  0  0  0  0  0  0  0  0
   -4.9876   -3.5907   -0.6049 H   0  0  0  0  0  0  0  0  0  0  0  0
   -5.1968   -2.0064   -1.3731 H   0  0  0  0  0  0  0  0  0  0  0  0
   -3.6055   -2.7660   -1.3443 H   0  0  0  0  0  0  0  0  0  0  0  0
  1  2  1  0  0  0  0
  2  3  1  0  0  0  0
  3  4  1  0  0  0  0
  4  5  2  0  0  0  0
  4  6  2  0  0  0  0
  6  7  1  0  0  0  0
  7  8  1  0  0  0  0
  4  9  1  0  0  0  0
  9 10  1  0  0  0  0
 10 11  1  0  0  0  0
 11 12  1  0  0  0  0
 12 13  2  0  0  0  0
 12 14  2  0  0  0  0
 14 15  1  0  0  0  0
 15 16  1  0  0  0  0
 12 17  2  0  0  0  0
 17 18  1  0  0  0  0
 18 19  1  0  0  0  0
  1 20  1  0  0  0  0
  1 21  1  0  0  0  0
  1 22  1  0  0  0  0
  2 23  1  0  0  0  0
  2 24  1  0  0  0  0
  7 25  1  0  0  0  0
  7 26  1  0  0  0  0
  8 27  1  0  0  0  0
  8 28  1  0  0  0  0
  8 29  1  0  0  0  0
 10 30  1  0  0  0  0
 10 31  1  0  0  0  0
 15 32  1  0  0  0  0
 15 33  1  0  0  0  0
 16 34  1  0  0  0  0
 16 35  1  0  0  0  0
 16 36  1  0  0  0  0
 18 37  1  0  0  0  0
 18 38  1  0  0  0  0
 19 39  1  0  0  0  0
 19 40  1  0  0  0  0
 19 41  1  0  0  0  0
M  END
