 xtb: 6.7.1 (edcfbbe)
          04092514033D

 41 40  0     0  0            999 V2000
    1.5581   -0.3058   -3.0319 C   0  0  0  0  0  0  0  0  0  0  0  0
    2.5384    0.4162   -2.1287 C   0  0  0  0  0  0  0  0  0  0  0  0
    3.0137   -0.4603   -1.0891 O   0  0  0  0  0  0  0  0  0  0  0  0
    2.5334   -0.3342    0.4099 P   0  0  0  0  0  0  0  0  0  0  0  0
    2.5813    1.4591    1.2107 S   0  0  0  0  0  0  0  0  0  0  0  0
    3.5733   -1.3773    0.9874 O   0  0  0  0  0  0  0  0  0  0  0  0
    3.6454   -1.6494    2.4039 C   0  0  0  0  0  0  0  0  0  0  0  0
    4.9897   -2.2851    2.7005 C   0  0  0  0  0  0  0  0  0  0  0  0
    0.6459   -1.3121    0.5284 S   0  0  0  0  0  0  0  0  0  0  0  0
   -0.2861   -0.1146    1.5621 C   0  0  0  0  0  0  0  0  0  0  0  0
   -2.0571   -0.2475    1.2798 S   0  0  0  0  0  0  0  0  0  0  0  0
   -2.1220    0.6138   -0.6698 P   0  0  0  0  0  0  0  0  0  0  0  0
   -0.8201    2.0331   -1.0283 S   0  0  0  0  0  0  0  0  0  0  0  0
   -3.6486    1.0192   -0.8543 O   0  0  0  0  0  0  0  0  0  0  0  0
   -4.1729    2.3219   -0.5445 C   0  0  0  0  0  0  0  0  0  0  0  0
   -4.2327    2.5949    0.9451 C   0  0  0  0  0  0  0  0  0  0  0  0
   -1.9431   -0.5712   -1.6954 O   0  0  0  0  0  0  0  0  0  0  0  0
   -2.4323   -1.9289   -1.5773 C   0  0  0  0  0  0  0  0  0  0  0  0
   -3.9407   -2.0117   -1.4893 C   0  0  0  0  0  0  0  0  0  0  0  0
    1.2753    0.3578   -3.8432 H   0  0  0  0  0  0  0  0  0  0  0  0
    2.0159   -1.2035   -3.4372 H   0  0  0  0  0  0  0  0  0  0  0  0
    0.6606   -0.5811   -2.4815 H   0  0  0  0  0  0  0  0  0  0  0  0
    2.0803    1.3054   -1.6803 H   0  0  0  0  0  0  0  0  0  0  0  0
    3.4328    0.7156   -2.6789 H   0  0  0  0  0  0  0  0  0  0  0  0
    3.5238   -0.7075    2.9506 H   0  0  0  0  0  0  0  0  0  0  0  0
    2.8257   -2.3267    2.6605 H   0  0  0  0  0  0  0  0  0  0  0  0
    5.7942   -1.5958    2.4611 H   0  0  0  0  0  0  0  0  0  0  0  0
    5.0361   -2.5364    3.7555 H   0  0  0  0  0  0  0  0  0  0  0  0
    5.1131   -3.1880    2.1097 H   0  0  0  0  0  0  0  0  0  0  0  0
    0.0597    0.8934    1.3174 H   0  0  0  0  0  0  0  0  0  0  0  0
   -0.1240   -0.3417    2.6127 H   0  0  0  0  0  0  0  0  0  0  0  0
   -3.5544    3.0725   -1.0469 H   0  0  0  0  0  0  0  0  0  0  0  0
   -5.1706    2.3104   -0.9865 H   0  0  0  0  0  0  0  0  0  0  0  0
   -4.7233    3.5500    1.1076 H   0  0  0  0  0  0  0  0  0  0  0  0
   -4.7885    1.8139    1.4568 H   0  0  0  0  0  0  0  0  0  0  0  0
   -3.2274    2.6435    1.3602 H   0  0  0  0  0  0  0  0  0  0  0  0
   -2.0581   -2.4046   -2.4854 H   0  0  0  0  0  0  0  0  0  0  0  0
   -1.9602   -2.3848   -0.7022 H   0  0  0  0  0  0  0  0  0  0  0  0
   -4.2330   -3.0576   -1.5021 H   0  0  0  0  0  0  0  0  0  0  0  0
   -4.2938   -1.5554   -0.5673 H   0  0  0  0  0  0  0  0  0  0  0  0
   -4.3984   -1.5023   -2.3332 H   0  0  0  0  0  0  0  0  0  0  0  0
  1  2  1  0  0  0  0
  2  3  1  0  0  0  0
  3  4  2  0  0  0  0
  4  5  2  0  0  0  0
  4  6  2  0  0  0  0
  6  7  1  0  0  0  0
  7  8  1  0  0  0  0
  4  9  1  0  0  0  0
  9 10  1  0  0  0  0
 10 11  1  0  0  0  0
 11 12  1  0  0  0  0
 12 13  2  0  0  0  0
 12 14  2  0  0  0  0
 14 15  1  0  0  0  0
 15 16  1  0  0  0  0
 12 17  2  0  0  0  0
 17 18  1  0  0  0  0
 18 19  1  0  0  0  0
  1 20  1  0  0  0  0
  1 21  1  0  0  0  0
  1 22  1  0  0  0  0
  2 23  1  0  0  0  0
  2 24  1  0  0  0  0
  7 25  1  0  0  0  0
  7 26  1  0  0  0  0
  8 27  1  0  0  0  0
  8 28  1  0  0  0  0
  8 29  1  0  0  0  0
 10 30  1  0  0  0  0
 10 31  1  0  0  0  0
 15 32  1  0  0  0  0
 15 33  1  0  0  0  0
 16 34  1  0  0  0  0
 16 35  1  0  0  0  0
 16 36  1  0  0  0  0
 18 37  1  0  0  0  0
 18 38  1  0  0  0  0
 19 39  1  0  0  0  0
 19 40  1  0  0  0  0
 19 41  1  0  0  0  0
M  END
