 xtb: 6.7.1 (edcfbbe)
          04092505213D

 41 40  0     0  0            999 V2000
    2.5324   -3.1009   -1.8132 C   0  0  0  0  0  0  0  0  0  0  0  0
    2.9546   -2.6623   -0.4259 C   0  0  0  0  0  0  0  0  0  0  0  0
    3.3245   -1.2611   -0.4015 O   0  0  0  0  0  0  0  0  0  0  0  0
    2.3368   -0.0656   -0.0912 P   0  0  0  0  0  0  0  0  0  0  0  0
    3.3052    1.6011    0.2124 S   0  0  0  0  0  0  0  0  0  0  0  0
    1.4035   -0.5839    1.1015 O   0  0  0  0  0  0  0  0  0  0  0  0
    1.4635   -0.0409    2.4320 C   0  0  0  0  0  0  0  0  0  0  0  0
    2.6314   -0.6239    3.2011 C   0  0  0  0  0  0  0  0  0  0  0  0
    0.9526   -0.0675   -1.7035 S   0  0  0  0  0  0  0  0  0  0  0  0
    0.3647    1.6290   -1.4829 C   0  0  0  0  0  0  0  0  0  0  0  0
   -0.4128    1.9059    0.1339 S   0  0  0  0  0  0  0  0  0  0  0  0
   -2.0005    0.5401   -0.1271 P   0  0  0  0  0  0  0  0  0  0  0  0
   -2.7720    0.3591   -1.9217 S   0  0  0  0  0  0  0  0  0  0  0  0
   -2.9237    1.1785    0.9890 O   0  0  0  0  0  0  0  0  0  0  0  0
   -4.2496    0.6512    1.2281 C   0  0  0  0  0  0  0  0  0  0  0  0
   -5.0039    1.6584    2.0707 C   0  0  0  0  0  0  0  0  0  0  0  0
   -1.5533   -0.8378    0.5373 O   0  0  0  0  0  0  0  0  0  0  0  0
   -1.3929   -2.0806   -0.1689 C   0  0  0  0  0  0  0  0  0  0  0  0
   -2.5479   -3.0077    0.1540 C   0  0  0  0  0  0  0  0  0  0  0  0
    3.3168   -2.8739   -2.5297 H   0  0  0  0  0  0  0  0  0  0  0  0
    2.3521   -4.1713   -1.8067 H   0  0  0  0  0  0  0  0  0  0  0  0
    1.6233   -2.5878   -2.1210 H   0  0  0  0  0  0  0  0  0  0  0  0
    3.8641   -3.1758   -0.1094 H   0  0  0  0  0  0  0  0  0  0  0  0
    2.1607   -2.8303    0.3052 H   0  0  0  0  0  0  0  0  0  0  0  0
    1.5464    1.0485    2.3659 H   0  0  0  0  0  0  0  0  0  0  0  0
    0.5025   -0.3078    2.8754 H   0  0  0  0  0  0  0  0  0  0  0  0
    3.5638   -0.3579    2.7039 H   0  0  0  0  0  0  0  0  0  0  0  0
    2.6392   -0.2157    4.2067 H   0  0  0  0  0  0  0  0  0  0  0  0
    2.5531   -1.7066    3.2519 H   0  0  0  0  0  0  0  0  0  0  0  0
   -0.3583    1.8107   -2.2777 H   0  0  0  0  0  0  0  0  0  0  0  0
    1.2066    2.3179   -1.5437 H   0  0  0  0  0  0  0  0  0  0  0  0
   -4.7386    0.4898    0.2611 H   0  0  0  0  0  0  0  0  0  0  0  0
   -4.1490   -0.3073    1.7441 H   0  0  0  0  0  0  0  0  0  0  0  0
   -5.0831    2.6030    1.5402 H   0  0  0  0  0  0  0  0  0  0  0  0
   -5.9988    1.2775    2.2774 H   0  0  0  0  0  0  0  0  0  0  0  0
   -4.4784    1.8262    3.0063 H   0  0  0  0  0  0  0  0  0  0  0  0
   -1.3452   -1.8818   -1.2441 H   0  0  0  0  0  0  0  0  0  0  0  0
   -0.4392   -2.4881    0.1709 H   0  0  0  0  0  0  0  0  0  0  0  0
   -3.4781   -2.5827   -0.2176 H   0  0  0  0  0  0  0  0  0  0  0  0
   -2.3800   -3.9654   -0.3278 H   0  0  0  0  0  0  0  0  0  0  0  0
   -2.6266   -3.1532    1.2278 H   0  0  0  0  0  0  0  0  0  0  0  0
  1  2  1  0  0  0  0
  2  3  1  0  0  0  0
  3  4  2  0  0  0  0
  4  5  2  0  0  0  0
  4  6  1  0  0  0  0
  6  7  1  0  0  0  0
  7  8  1  0  0  0  0
  4  9  1  0  0  0  0
  9 10  1  0  0  0  0
 10 11  1  0  0  0  0
 11 12  1  0  0  0  0
 12 13  2  0  0  0  0
 12 14  2  0  0  0  0
 14 15  1  0  0  0  0
 15 16  1  0  0  0  0
 12 17  2  0  0  0  0
 17 18  1  0  0  0  0
 18 19  1  0  0  0  0
  1 20  1  0  0  0  0
  1 21  1  0  0  0  0
  1 22  1  0  0  0  0
  2 23  1  0  0  0  0
  2 24  1  0  0  0  0
  7 25  1  0  0  0  0
  7 26  1  0  0  0  0
  8 27  1  0  0  0  0
  8 28  1  0  0  0  0
  8 29  1  0  0  0  0
 10 30  1  0  0  0  0
 10 31  1  0  0  0  0
 15 32  1  0  0  0  0
 15 33  1  0  0  0  0
 16 34  1  0  0  0  0
 16 35  1  0  0  0  0
 16 36  1  0  0  0  0
 18 37  1  0  0  0  0
 18 38  1  0  0  0  0
 19 39  1  0  0  0  0
 19 40  1  0  0  0  0
 19 41  1  0  0  0  0
M  END
