 xtb: 6.7.1 (edcfbbe)
          04032520443D

 10 10  0     0  0            999 V2000
   -1.8736   -0.1430    0.3796 C   0  0  0  0  0  0  0  0  0  0  0  0
   -0.7108   -0.6241   -0.4830 C   0  0  0  0  0  0  0  0  0  0  0  0
    0.5152    0.0607   -0.0813 N   0  0  0  0  0  0  0  0  0  0  0  0
    0.5487    1.2701   -0.1714 O   0  0  0  0  0  0  0  0  0  0  0  0
    1.4392   -0.6125    0.3292 O   0  0  0  0  0  0  0  0  0  0  0  0
   -1.7231   -0.4233    1.4188 H   0  0  0  0  0  0  0  0  0  0  0  0
   -1.9628    0.9385    0.3152 H   0  0  0  0  0  0  0  0  0  0  0  0
   -2.7938   -0.5952    0.0253 H   0  0  0  0  0  0  0  0  0  0  0  0
   -0.8981   -0.3650   -1.5272 H   0  0  0  0  0  0  0  0  0  0  0  0
   -0.5399   -1.6951   -0.3753 H   0  0  0  0  0  0  0  0  0  0  0  0
  1  2  1  0  0  0  0
  2  3  1  0  0  0  0
  3  4  4  0  0  0  0
  3  5  4  0  0  0  0
  4  5  1  0  0  0  0
  1  6  1  0  0  0  0
  1  7  1  0  0  0  0
  1  8  1  0  0  0  0
  2  9  1  0  0  0  0
  2 10  1  0  0  0  0
M  END
