41
 xtb: 6.7.1 (edcfbbe)
C            2.90180507218855       -2.38047112455678        2.15625794930136
C            1.73947087605146       -2.19348277630768        1.21278699429558
O            1.60225072289210       -0.78758905480940        0.81744353982995
P            2.45958697392047       -0.11964092175335       -0.36684317380801
S            3.20705754281293       -1.31055840031847       -1.70905637440881
O            3.58697412940011        0.77229639976473        0.35484530269243
C            3.30185735344406        1.47990150967241        1.62075499143038
C            4.37370294416054        2.52118981629995        1.80044454729618
S            1.13424791619202        1.38363842089345       -1.06858373895517
C            0.12577485669600        0.41714573079827       -2.26175888590803
S           -0.88190565305243       -0.97310649809681       -1.61216699119302
P           -2.19634646610586        0.05116943518954       -0.30419265164371
S           -2.81107364873185        1.79692801107906       -0.91185204575419
O           -1.41713489067758       -0.01088727611663        1.09508035644610
C           -1.62131633503230        0.98179470548940        2.15960417932892
C           -2.90258188374685        0.72317124465736        2.91192232195852
O           -3.31275974081045       -1.08326777991033       -0.05835177558338
C           -4.33670313878100       -1.37272614788337       -1.07679076236903
C           -5.69302114035826       -1.27230121786093       -0.42822825396107
H            3.85057044575771       -2.12769869477585        1.67220347356448
H            2.78217046760517       -1.76492716492355        3.05218010748796
H            2.94398066553144       -3.43102291136428        2.46246934155195
H            0.78456705035883       -2.42512157239440        1.69015279056377
H            1.84231374697579       -2.79994323783732        0.30804115982968
H            2.30673376733985        1.93380438430882        1.56657817573820
H            3.31188653730339        0.73582093049827        2.42169192069790
H            5.36438925451857        2.05953445837797        1.83634243568997
H            4.34780784238101        3.25383024492869        0.98914348205756
H            4.20229514063620        3.04474483482779        2.74604850751886
H            0.78124617797420       -0.02947777851069       -3.01498418353081
H           -0.53120743977344        1.15131720541431       -2.73722626211677
H           -0.74220148229151        0.85737622547893        2.79549874714760
H           -1.59916570475449        1.97925123628714        1.71040133284132
H           -2.91958809872125       -0.29238271108995        3.31749859130410
H           -2.97092959473189        1.42974260312317        3.74567399412938
H           -3.77803360065717        0.86681502703796        2.27122781212964
H           -4.23587623930155       -0.66732886203429       -1.90745634521920
H           -4.12643175596109       -2.38275488620827       -1.43852030620135
H           -5.77115522818550       -1.95653972379909        0.42160356675559
H           -5.88586046168878       -0.25190351674650       -0.08438235067322
H           -6.46000344846512       -1.54326778347223       -1.16065894516858
