20
 xtb: 6.7.1 (edcfbbe)
C            0.62776589162709        1.71554367695082       -0.04383814464571
C            1.39875986318300        0.42225259706588       -0.27315895885439
H            1.62696468329373        0.30820502903180       -1.33936769365938
C            0.56584452949590       -0.77036785150621        0.18746527805886
H            0.42752107354895       -0.70234141885650        1.28005267504344
C           -0.79562570622964       -0.74178497302215       -0.49796914718418
H           -0.64882685113891       -0.88026761148171       -1.57485200636475
C           -1.48246484366225        0.61391817665472       -0.29533518283408
H           -2.37262187715106        0.68443461569550       -0.93000176009661
O           -0.64138731654011        1.67840615796640       -0.72434095657491
O           -1.83409170768666        0.72204362302593        1.07139090937303
O           -1.64136439171475       -1.81101911227848       -0.07511324968357
O            1.19787845875918       -2.01064957566613       -0.14748996777185
O            2.66542475592936        0.45901918017090        0.39729303162446
H            1.17101234483697        2.56564163975186       -0.46213711019233
H            0.48385792689335        1.88151672289899        1.03327964428713
H           -2.51338337667934        1.40514785202625        1.15206989728454
H           -1.83753432911331       -1.66810983262607        0.86216889437301
H            2.08141493586310       -1.98978604318245        0.24552951876521
H            2.49219329931338        0.55663161772882        1.34562885636559
