 xtb: 6.7.1 (edcfbbe)
          04092505213D

 41 40  0     0  0            999 V2000
    3.2665   -2.9981   -0.7070 C   0  0  0  0  0  0  0  0  0  0  0  0
    3.6544   -1.8839   -1.6539 C   0  0  0  0  0  0  0  0  0  0  0  0
    3.8209   -0.6109   -0.9841 O   0  0  0  0  0  0  0  0  0  0  0  0
    2.7853    0.0995   -0.0331 P   0  0  0  0  0  0  0  0  0  0  0  0
    3.1831    2.0066    0.1561 S   0  0  0  0  0  0  0  0  0  0  0  0
    2.9254   -0.7433    1.3092 O   0  0  0  0  0  0  0  0  0  0  0  0
    2.5328   -0.2404    2.5957 C   0  0  0  0  0  0  0  0  0  0  0  0
    1.0267   -0.1711    2.7465 C   0  0  0  0  0  0  0  0  0  0  0  0
    0.8730   -0.3935   -0.8677 S   0  0  0  0  0  0  0  0  0  0  0  0
    0.1878    1.2645   -1.0925 C   0  0  0  0  0  0  0  0  0  0  0  0
   -0.9875    1.7302    0.2021 S   0  0  0  0  0  0  0  0  0  0  0  0
   -2.5342    0.3816   -0.3681 P   0  0  0  0  0  0  0  0  0  0  0  0
   -2.7516    0.1812   -2.3022 S   0  0  0  0  0  0  0  0  0  0  0  0
   -3.8222    0.9780    0.3225 O   0  0  0  0  0  0  0  0  0  0  0  0
   -4.1979    0.7995    1.7112 C   0  0  0  0  0  0  0  0  0  0  0  0
   -3.1274    1.2652    2.6740 C   0  0  0  0  0  0  0  0  0  0  0  0
   -2.2195   -0.9561    0.4417 O   0  0  0  0  0  0  0  0  0  0  0  0
   -1.9812   -2.2331   -0.1770 C   0  0  0  0  0  0  0  0  0  0  0  0
   -3.2833   -2.9910   -0.3420 C   0  0  0  0  0  0  0  0  0  0  0  0
    2.2809   -2.8027   -0.2882 H   0  0  0  0  0  0  0  0  0  0  0  0
    3.2387   -3.9353   -1.2541 H   0  0  0  0  0  0  0  0  0  0  0  0
    3.9870   -3.0728    0.1031 H   0  0  0  0  0  0  0  0  0  0  0  0
    2.9019   -1.7594   -2.4370 H   0  0  0  0  0  0  0  0  0  0  0  0
    4.6326   -2.0564   -2.1050 H   0  0  0  0  0  0  0  0  0  0  0  0
    2.9749   -0.9489    3.2980 H   0  0  0  0  0  0  0  0  0  0  0  0
    2.9793    0.7493    2.7361 H   0  0  0  0  0  0  0  0  0  0  0  0
    0.6211    0.6010    2.0942 H   0  0  0  0  0  0  0  0  0  0  0  0
    0.5762   -1.1272    2.4912 H   0  0  0  0  0  0  0  0  0  0  0  0
    0.7804    0.0798    3.7733 H   0  0  0  0  0  0  0  0  0  0  0  0
   -0.3256    1.2747   -2.0541 H   0  0  0  0  0  0  0  0  0  0  0  0
    0.9990    1.9945   -1.0590 H   0  0  0  0  0  0  0  0  0  0  0  0
   -5.1077    1.3953    1.7982 H   0  0  0  0  0  0  0  0  0  0  0  0
   -4.4283   -0.2563    1.8671 H   0  0  0  0  0  0  0  0  0  0  0  0
   -3.5121    1.2070    3.6875 H   0  0  0  0  0  0  0  0  0  0  0  0
   -2.2469    0.6317    2.5911 H   0  0  0  0  0  0  0  0  0  0  0  0
   -2.8414    2.2920    2.4579 H   0  0  0  0  0  0  0  0  0  0  0  0
   -1.4959   -2.0819   -1.1453 H   0  0  0  0  0  0  0  0  0  0  0  0
   -1.2971   -2.7465    0.4997 H   0  0  0  0  0  0  0  0  0  0  0  0
   -3.7731   -3.1189    0.6195 H   0  0  0  0  0  0  0  0  0  0  0  0
   -3.9466   -2.4415   -1.0082 H   0  0  0  0  0  0  0  0  0  0  0  0
   -3.0791   -3.9654   -0.7737 H   0  0  0  0  0  0  0  0  0  0  0  0
  1  2  1  0  0  0  0
  2  3  1  0  0  0  0
  3  4  2  0  0  0  0
  4  5  2  0  0  0  0
  4  6  2  0  0  0  0
  6  7  1  0  0  0  0
  7  8  1  0  0  0  0
  4  9  1  0  0  0  0
  9 10  1  0  0  0  0
 10 11  1  0  0  0  0
 11 12  1  0  0  0  0
 12 13  2  0  0  0  0
 12 14  2  0  0  0  0
 14 15  1  0  0  0  0
 15 16  1  0  0  0  0
 12 17  2  0  0  0  0
 17 18  1  0  0  0  0
 18 19  1  0  0  0  0
  1 20  1  0  0  0  0
  1 21  1  0  0  0  0
  1 22  1  0  0  0  0
  2 23  1  0  0  0  0
  2 24  1  0  0  0  0
  7 25  1  0  0  0  0
  7 26  1  0  0  0  0
  8 27  1  0  0  0  0
  8 28  1  0  0  0  0
  8 29  1  0  0  0  0
 10 30  1  0  0  0  0
 10 31  1  0  0  0  0
 15 32  1  0  0  0  0
 15 33  1  0  0  0  0
 16 34  1  0  0  0  0
 16 35  1  0  0  0  0
 16 36  1  0  0  0  0
 18 37  1  0  0  0  0
 18 38  1  0  0  0  0
 19 39  1  0  0  0  0
 19 40  1  0  0  0  0
 19 41  1  0  0  0  0
M  END
