 xtb: 6.7.1 (edcfbbe)
          04092507313D

 38 37  0     0  0            999 V2000
    5.5358   -1.9042   -1.4612 C   0  0  0  0  0  0  0  0  0  0  0  0
    4.6966   -0.8008   -0.8375 C   0  0  0  0  0  0  0  0  0  0  0  0
    3.4013   -1.2905   -0.4386 O   0  0  0  0  0  0  0  0  0  0  0  0
    2.4582   -1.3772   -1.3573 C   0  0  0  0  0  0  0  0  0  0  0  0
    2.5979   -1.0900   -2.5235 O   0  0  0  0  0  0  0  0  0  0  0  0
    1.1526   -1.8750   -0.7579 C   0  0  0  0  0  0  0  0  0  0  0  0
    0.1590   -0.7081   -0.7446 C   0  0  0  0  0  0  0  0  0  0  0  0
   -0.0208   -0.3610   -1.7660 H   0  0  0  0  0  0  0  0  0  0  0  0
    0.7847    0.4272    0.0438 C   0  0  0  0  0  0  0  0  0  0  0  0
    1.6779    1.1011   -0.4169 O   0  0  0  0  0  0  0  0  0  0  0  0
    0.3146    0.5226    1.2688 O   0  0  0  0  0  0  0  0  0  0  0  0
    0.9238    1.4815    2.1566 C   0  0  0  0  0  0  0  0  0  0  0  0
    2.0808    0.8408    2.9040 C   0  0  0  0  0  0  0  0  0  0  0  0
   -1.4127   -1.2676   -0.0152 S   0  0  0  0  0  0  0  0  0  0  0  0
   -2.3314    0.6290    0.2474 P   0  0  0  0  0  0  0  0  0  0  0  0
   -1.6212    2.0948   -0.8456 S   0  0  0  0  0  0  0  0  0  0  0  0
   -3.8746    0.2955   -0.0115 O   0  0  0  0  0  0  0  0  0  0  0  0
   -4.3580   -0.0416   -1.3166 C   0  0  0  0  0  0  0  0  0  0  0  0
   -2.3717    0.9659    1.7877 O   0  0  0  0  0  0  0  0  0  0  0  0
   -2.8998    0.0337    2.7566 C   0  0  0  0  0  0  0  0  0  0  0  0
    5.0750   -2.2464   -2.3848 H   0  0  0  0  0  0  0  0  0  0  0  0
    6.5246   -1.5170   -1.6833 H   0  0  0  0  0  0  0  0  0  0  0  0
    5.6230   -2.7414   -0.7743 H   0  0  0  0  0  0  0  0  0  0  0  0
    4.5484    0.0258   -1.5385 H   0  0  0  0  0  0  0  0  0  0  0  0
    5.1437   -0.4344    0.0868 H   0  0  0  0  0  0  0  0  0  0  0  0
    1.3283   -2.2357    0.2552 H   0  0  0  0  0  0  0  0  0  0  0  0
    0.7529   -2.6759   -1.3801 H   0  0  0  0  0  0  0  0  0  0  0  0
    1.2577    2.3357    1.5607 H   0  0  0  0  0  0  0  0  0  0  0  0
    0.1200    1.7849    2.8280 H   0  0  0  0  0  0  0  0  0  0  0  0
    2.8457    0.5217    2.1990 H   0  0  0  0  0  0  0  0  0  0  0  0
    2.5093    1.5671    3.5863 H   0  0  0  0  0  0  0  0  0  0  0  0
    1.7337   -0.0213    3.4664 H   0  0  0  0  0  0  0  0  0  0  0  0
   -5.4421   -0.0103   -1.2437 H   0  0  0  0  0  0  0  0  0  0  0  0
   -4.0192   -1.0407   -1.5903 H   0  0  0  0  0  0  0  0  0  0  0  0
   -4.0046    0.6865   -2.0484 H   0  0  0  0  0  0  0  0  0  0  0  0
   -2.7113    0.4920    3.7238 H   0  0  0  0  0  0  0  0  0  0  0  0
   -2.3822   -0.9215    2.6710 H   0  0  0  0  0  0  0  0  0  0  0  0
   -3.9668   -0.1021    2.5938 H   0  0  0  0  0  0  0  0  0  0  0  0
  1  2  1  0  0  0  0
  2  3  1  0  0  0  0
  3  4  1  0  0  0  0
  4  5  2  0  0  0  0
  4  6  1  0  0  0  0
  6  7  1  0  0  0  0
  7  8  1  0  0  0  0
  7  9  1  0  0  0  0
  9 10  2  0  0  0  0
  9 11  1  0  0  0  0
 11 12  1  0  0  0  0
 12 13  1  0  0  0  0
  7 14  1  0  0  0  0
 14 15  1  0  0  0  0
 15 16  2  0  0  0  0
 15 17  1  0  0  0  0
 17 18  1  0  0  0  0
 15 19  2  0  0  0  0
 19 20  1  0  0  0  0
  1 21  1  0  0  0  0
  1 22  1  0  0  0  0
  1 23  1  0  0  0  0
  2 24  1  0  0  0  0
  2 25  1  0  0  0  0
  6 26  1  0  0  0  0
  6 27  1  0  0  0  0
 12 28  1  0  0  0  0
 12 29  1  0  0  0  0
 13 30  1  0  0  0  0
 13 31  1  0  0  0  0
 13 32  1  0  0  0  0
 18 33  1  0  0  0  0
 18 34  1  0  0  0  0
 18 35  1  0  0  0  0
 20 36  1  0  0  0  0
 20 37  1  0  0  0  0
 20 38  1  0  0  0  0
M  END
