 xtb: 6.7.1 (edcfbbe)
          04092507313D

 38 37  0     0  0            999 V2000
    4.0331   -2.8657    0.5189 C   0  0  0  0  0  0  0  0  0  0  0  0
    2.5189   -2.8126    0.3986 C   0  0  0  0  0  0  0  0  0  0  0  0
    2.1211   -2.0440   -0.7524 O   0  0  0  0  0  0  0  0  0  0  0  0
    2.0480   -0.7359   -0.6480 C   0  0  0  0  0  0  0  0  0  0  0  0
    2.2627   -0.0980    0.3626 O   0  0  0  0  0  0  0  0  0  0  0  0
    1.6536   -0.0818   -1.9599 C   0  0  0  0  0  0  0  0  0  0  0  0
    0.4122    0.7919   -1.7606 C   0  0  0  0  0  0  0  0  0  0  0  0
    0.2892    1.4633   -2.6138 H   0  0  0  0  0  0  0  0  0  0  0  0
    0.5159    1.6116   -0.4899 C   0  0  0  0  0  0  0  0  0  0  0  0
   -0.2758    1.4840    0.4283 O   0  0  0  0  0  0  0  0  0  0  0  0
    1.4932    2.4656   -0.5316 O   0  0  0  0  0  0  0  0  0  0  0  0
    1.7575    3.2692    0.6397 C   0  0  0  0  0  0  0  0  0  0  0  0
    0.8532    4.4892    0.6845 C   0  0  0  0  0  0  0  0  0  0  0  0
   -1.1204   -0.1928   -1.7032 S   0  0  0  0  0  0  0  0  0  0  0  0
   -1.6329   -0.5119    0.3466 P   0  0  0  0  0  0  0  0  0  0  0  0
   -0.4494   -1.1114    1.7890 S   0  0  0  0  0  0  0  0  0  0  0  0
   -2.7775    0.5504    0.7188 O   0  0  0  0  0  0  0  0  0  0  0  0
   -2.6912    1.5807    1.6999 C   0  0  0  0  0  0  0  0  0  0  0  0
   -2.5688   -1.7852    0.0692 O   0  0  0  0  0  0  0  0  0  0  0  0
   -3.7055   -1.7935   -0.8092 C   0  0  0  0  0  0  0  0  0  0  0  0
    4.3002   -3.5095    1.3500 H   0  0  0  0  0  0  0  0  0  0  0  0
    4.4670   -3.2588   -0.3964 H   0  0  0  0  0  0  0  0  0  0  0  0
    4.4277   -1.8694    0.7044 H   0  0  0  0  0  0  0  0  0  0  0  0
    2.0652   -2.3669    1.2896 H   0  0  0  0  0  0  0  0  0  0  0  0
    2.0946   -3.8009    0.2215 H   0  0  0  0  0  0  0  0  0  0  0  0
    1.4614   -0.8452   -2.7118 H   0  0  0  0  0  0  0  0  0  0  0  0
    2.4828    0.5561   -2.2726 H   0  0  0  0  0  0  0  0  0  0  0  0
    1.6250    2.6384    1.5229 H   0  0  0  0  0  0  0  0  0  0  0  0
    2.8048    3.5503    0.5325 H   0  0  0  0  0  0  0  0  0  0  0  0
    0.9637    5.0711   -0.2262 H   0  0  0  0  0  0  0  0  0  0  0  0
   -0.1858    4.1865    0.7917 H   0  0  0  0  0  0  0  0  0  0  0  0
    1.1275    5.1020    1.5367 H   0  0  0  0  0  0  0  0  0  0  0  0
   -2.4808    2.5290    1.2081 H   0  0  0  0  0  0  0  0  0  0  0  0
   -1.9042    1.3546    2.4202 H   0  0  0  0  0  0  0  0  0  0  0  0
   -3.6607    1.6088    2.1934 H   0  0  0  0  0  0  0  0  0  0  0  0
   -4.2253   -2.7229   -0.5894 H   0  0  0  0  0  0  0  0  0  0  0  0
   -3.3726   -1.7767   -1.8467 H   0  0  0  0  0  0  0  0  0  0  0  0
   -4.3459   -0.9374   -0.6051 H   0  0  0  0  0  0  0  0  0  0  0  0
  1  2  1  0  0  0  0
  2  3  1  0  0  0  0
  3  4  4  0  0  0  0
  4  5  2  0  0  0  0
  4  6  1  0  0  0  0
  6  7  1  0  0  0  0
  7  8  1  0  0  0  0
  7  9  1  0  0  0  0
  9 10  2  0  0  0  0
  9 11  4  0  0  0  0
 11 12  1  0  0  0  0
 12 13  1  0  0  0  0
  7 14  1  0  0  0  0
 14 15  1  0  0  0  0
 15 16  2  0  0  0  0
 15 17  1  0  0  0  0
 17 18  1  0  0  0  0
 15 19  1  0  0  0  0
 19 20  1  0  0  0  0
  1 21  1  0  0  0  0
  1 22  1  0  0  0  0
  1 23  1  0  0  0  0
  2 24  1  0  0  0  0
  2 25  1  0  0  0  0
  6 26  1  0  0  0  0
  6 27  1  0  0  0  0
 12 28  1  0  0  0  0
 12 29  1  0  0  0  0
 13 30  1  0  0  0  0
 13 31  1  0  0  0  0
 13 32  1  0  0  0  0
 18 33  1  0  0  0  0
 18 34  1  0  0  0  0
 18 35  1  0  0  0  0
 20 36  1  0  0  0  0
 20 37  1  0  0  0  0
 20 38  1  0  0  0  0
M  END
