  17
 
 C         -3.4424307581       -0.3181268230       -0.0006437470
 C         -2.2190534396        0.5900317404        0.0061089023
 C         -0.9216754517       -0.2150689240        0.0051482054
 C          0.3078725998        0.6906649517        0.0046915845
 C          1.5944599183       -0.0955737695        0.0018350328
 O          1.6568051338       -1.3029428464        0.0022995259
 O          2.7182510527        0.6245834056       -0.0013185353
 H         -4.3558471332        0.2713362109       -0.0003176291
 H         -3.4415514502       -0.9520198303       -0.8843548528
 H         -3.4457527227       -0.9595249176        0.8776377041
 H         -2.2486666569        1.2280750089        0.8917404716
 H         -2.2450789103        1.2361703283       -0.8737653377
 H         -0.8865455739       -0.8642256261        0.8823762831
 H         -0.8873435552       -0.8636411085       -0.8725772446
 H          0.2968275037        1.3306845840        0.8903915186
 H          0.2944018571        1.3329040380       -0.8793637758
 H          2.5713303490        1.5882001664       -0.0017769505
          17
        -23.95685411
 C         -3.4341973398       -0.3274035723        0.0005750120
 C         -2.2134806616        0.5844486905        0.0009037633
 C         -0.9144198852       -0.2178486615       -0.0024569293
 C          0.3140241854        0.6892276529       -0.0001485495
 C          1.6009454074       -0.0969686120        0.0000918394
 O          1.6631844035       -1.3044011019        0.0006616067
 O          2.7249224286        0.6227738651        0.0002750436
 H         -3.4317913913       -0.9667810549        0.8802990099
 H         -4.3496054044        0.2587780174        0.0029743191
 H         -3.4341621873       -0.9632887467       -0.8816884707
 H         -2.2417618387        1.2246404862        0.8849892688
 H         -2.2440153656        1.2282312719       -0.8804639742
 H         -0.8782170034       -0.8694318107        0.8728972111
 H         -0.8791528924       -0.8638712115       -0.8819666967
 H          0.3007187174        1.3287001465        0.8859103647
 H          0.3020393834        1.3317403811       -0.8839619367
 H          2.5783227084        1.5864654067       -0.0015251499
          17
        -23.96466136
 C         -3.1091132554       -0.4091527107       -0.2357904804
 C         -1.6790576545        0.0039195691       -0.5621120524
 C         -0.9720908305        0.5939790836        0.6567181073
 C          0.4505930413        1.0440170622        0.3315849685
 C          1.3807843664       -0.1106825206        0.0748805177
 O          1.2460385530       -1.2348535294        0.5076643461
 O          2.4148116202        0.2396112521       -0.6782357018
 H         -3.5953420399       -0.8271506795       -1.1134860645
 H         -3.1162825791       -1.1595092156        0.5513203209
 H         -3.6850015482        0.4491938909        0.1021607248
 H         -1.6892061250        0.7412653147       -1.3679961388
 H         -1.1200399779       -0.8674269803       -0.9111729132
 H         -1.5403812140        1.4487023394        1.0255760010
 H         -0.9311864733       -0.1586299087        1.4466151413
 H          0.8702946287        1.5936608412        1.1778533641
 H          0.4741847741        1.7022099881       -0.5373870310
 H          3.0405937101       -0.4955166989       -0.8271509009
