 xtb: 6.7.1 (edcfbbe)
          04092513593D

 41 40  0     0  0            999 V2000
    4.1991   -0.7327   -2.2623 C   0  0  0  0  0  0  0  0  0  0  0  0
    4.4142   -0.8282   -0.7650 C   0  0  0  0  0  0  0  0  0  0  0  0
    3.1726   -0.8009   -0.0415 O   0  0  0  0  0  0  0  0  0  0  0  0
    2.3561    0.5472    0.2135 P   0  0  0  0  0  0  0  0  0  0  0  0
    3.4516    2.1583    0.4095 S   0  0  0  0  0  0  0  0  0  0  0  0
    1.4548    0.1588    1.4594 O   0  0  0  0  0  0  0  0  0  0  0  0
    1.9086    0.3542    2.8174 C   0  0  0  0  0  0  0  0  0  0  0  0
    2.9998   -0.6212    3.2066 C   0  0  0  0  0  0  0  0  0  0  0  0
    0.8659    0.6391   -1.2867 S   0  0  0  0  0  0  0  0  0  0  0  0
    0.2418   -1.0733   -1.2770 C   0  0  0  0  0  0  0  0  0  0  0  0
   -0.9285   -1.4552    0.0511 S   0  0  0  0  0  0  0  0  0  0  0  0
   -2.4664   -0.0913   -0.5079 P   0  0  0  0  0  0  0  0  0  0  0  0
   -2.8145    0.1040   -2.4189 S   0  0  0  0  0  0  0  0  0  0  0  0
   -2.0525    1.2825    0.1579 O   0  0  0  0  0  0  0  0  0  0  0  0
   -1.7871    1.4324    1.5718 C   0  0  0  0  0  0  0  0  0  0  0  0
   -2.9479    2.1142    2.2661 C   0  0  0  0  0  0  0  0  0  0  0  0
   -3.6997   -0.5457    0.3909 O   0  0  0  0  0  0  0  0  0  0  0  0
   -4.7287   -1.4457   -0.0625 C   0  0  0  0  0  0  0  0  0  0  0  0
   -4.2522   -2.8810   -0.1504 C   0  0  0  0  0  0  0  0  0  0  0  0
    3.5154   -1.5071   -2.6005 H   0  0  0  0  0  0  0  0  0  0  0  0
    3.7842    0.2412   -2.5201 H   0  0  0  0  0  0  0  0  0  0  0  0
    5.1514   -0.8542   -2.7689 H   0  0  0  0  0  0  0  0  0  0  0  0
    5.0419   -0.0021   -0.4148 H   0  0  0  0  0  0  0  0  0  0  0  0
    4.8651   -1.7813   -0.4841 H   0  0  0  0  0  0  0  0  0  0  0  0
    2.2602    1.3862    2.9183 H   0  0  0  0  0  0  0  0  0  0  0  0
    1.0081    0.2074    3.4153 H   0  0  0  0  0  0  0  0  0  0  0  0
    2.6850   -1.6405    2.9998 H   0  0  0  0  0  0  0  0  0  0  0  0
    3.9102   -0.4097    2.6483 H   0  0  0  0  0  0  0  0  0  0  0  0
    3.2068   -0.5160    4.2675 H   0  0  0  0  0  0  0  0  0  0  0  0
    1.0721   -1.7652   -1.1630 H   0  0  0  0  0  0  0  0  0  0  0  0
   -0.2558   -1.1947   -2.2389 H   0  0  0  0  0  0  0  0  0  0  0  0
   -1.5919    0.4460    2.0027 H   0  0  0  0  0  0  0  0  0  0  0  0
   -0.8798    2.0398    1.6231 H   0  0  0  0  0  0  0  0  0  0  0  0
   -3.8399    1.4965    2.2036 H   0  0  0  0  0  0  0  0  0  0  0  0
   -2.6918    2.2726    3.3092 H   0  0  0  0  0  0  0  0  0  0  0  0
   -3.1503    3.0734    1.7972 H   0  0  0  0  0  0  0  0  0  0  0  0
   -5.5173   -1.3330    0.6834 H   0  0  0  0  0  0  0  0  0  0  0  0
   -5.0871   -1.0978   -1.0362 H   0  0  0  0  0  0  0  0  0  0  0  0
   -3.8098   -3.1944    0.7914 H   0  0  0  0  0  0  0  0  0  0  0  0
   -5.1007   -3.5192   -0.3782 H   0  0  0  0  0  0  0  0  0  0  0  0
   -3.5116   -2.9839   -0.9412 H   0  0  0  0  0  0  0  0  0  0  0  0
  1  2  1  0  0  0  0
  2  3  1  0  0  0  0
  3  4  2  0  0  0  0
  4  5  2  0  0  0  0
  4  6  2  0  0  0  0
  6  7  1  0  0  0  0
  7  8  1  0  0  0  0
  4  9  1  0  0  0  0
  9 10  1  0  0  0  0
 10 11  1  0  0  0  0
 11 12  1  0  0  0  0
 12 13  2  0  0  0  0
 12 14  2  0  0  0  0
 14 15  1  0  0  0  0
 15 16  1  0  0  0  0
 12 17  2  0  0  0  0
 17 18  1  0  0  0  0
 18 19  1  0  0  0  0
  1 20  1  0  0  0  0
  1 21  1  0  0  0  0
  1 22  1  0  0  0  0
  2 23  1  0  0  0  0
  2 24  1  0  0  0  0
  7 25  1  0  0  0  0
  7 26  1  0  0  0  0
  8 27  1  0  0  0  0
  8 28  1  0  0  0  0
  8 29  1  0  0  0  0
 10 30  1  0  0  0  0
 10 31  1  0  0  0  0
 15 32  1  0  0  0  0
 15 33  1  0  0  0  0
 16 34  1  0  0  0  0
 16 35  1  0  0  0  0
 16 36  1  0  0  0  0
 18 37  1  0  0  0  0
 18 38  1  0  0  0  0
 19 39  1  0  0  0  0
 19 40  1  0  0  0  0
 19 41  1  0  0  0  0
M  END
