  22
 
 C         -4.1990511731        1.4003451560        0.2256474754
 C         -3.4862782828        0.0909149435       -0.0556290244
 O         -2.0740238913        0.3431193295       -0.0951153202
 C         -1.2528031858       -0.6881107389        0.0928105905
 O         -1.6569036584       -1.8252508514        0.2820067378
 C          0.1679883704       -0.3130337276        0.0563834729
 C          1.1291343743       -1.3038426953        0.2583481504
 C          2.4713035688       -0.9941551581        0.2363963871
 C          2.8789465360        0.3206075428        0.0093889078
 C          1.9184397803        1.3148315085       -0.1952336469
 C          0.5788967810        1.0023407489       -0.1716572555
 O          4.1754447588        0.6816208569       -0.0220638499
 H         -5.2686525076        1.2240518633        0.2672135876
 H         -3.8659767668        1.8093812129        1.1750857056
 H         -3.9833852382        2.1173783408       -0.5605527252
 H         -3.7843049634       -0.3282270019       -1.0226421328
 H         -3.6843341927       -0.6578393679        0.7189547277
 H          0.7953274138       -2.3156277685        0.4326595012
 H          3.2051638826       -1.7698598118        0.3949337211
 H          2.2543710643        2.3240312744       -0.3697234479
 H         -0.1625841377        1.7685079776       -0.3287339021
 H          4.7597500642       -0.0780271273        0.1312998120
          22
        -36.59137872
 C         -4.0865812748       -0.5227197064        0.9419550929
 C         -3.4467239319       -0.5169021156       -0.4384277803
 O         -2.0204672572       -0.6406926530       -0.3505716303
 C         -1.3018465812        0.4727539424       -0.1942349770
 O         -1.8031340930        1.5845866921       -0.1473619459
 C          0.1427667025        0.2159101802       -0.0998188894
 C          1.0089610872        1.2994890510        0.0476768545
 C          2.3693993600        1.1029510324        0.1388852775
 C          2.8913977427       -0.1896497596        0.0844847705
 C          2.0259621481       -1.2771834958       -0.0619287960
 C          0.6678934597       -1.0772995091       -0.1531479091
 O          4.2112551323       -0.4417777346        0.1680857297
 H         -3.7662557836        0.3523184944        1.5031254777
 H         -5.1663550680       -0.4997013110        0.8379640884
 H         -3.7954553378       -1.4175427188        1.4853907617
 H         -3.6860148251        0.4102182271       -0.9689273818
 H         -3.7614295054       -1.3808917584       -1.0249048387
 H          0.5877898789        2.2926369702        0.0877374171
 H          3.0292503643        1.9497965960        0.2522682242
 H          2.4492979614       -2.2677790864       -0.1012031097
 H         -0.0004665719       -1.9152759770       -0.2663813967
 H          4.7238307864        0.3764726897        0.2676800700
