 xtb: 6.7.1 (edcfbbe)
          04092505203D

 41 40  0     0  0            999 V2000
    2.4281   -1.7219   -2.8464 C   0  0  0  0  0  0  0  0  0  0  0  0
    3.4518   -0.8972   -2.0930 C   0  0  0  0  0  0  0  0  0  0  0  0
    3.2612   -0.9804   -0.6715 O   0  0  0  0  0  0  0  0  0  0  0  0
    1.9622   -0.4097    0.0501 P   0  0  0  0  0  0  0  0  0  0  0  0
    1.3971    1.3206   -0.7134 S   0  0  0  0  0  0  0  0  0  0  0  0
    2.4001   -0.3929    1.5720 O   0  0  0  0  0  0  0  0  0  0  0  0
    2.9378    0.7788    2.2152 C   0  0  0  0  0  0  0  0  0  0  0  0
    4.3255    1.1069    1.7061 C   0  0  0  0  0  0  0  0  0  0  0  0
    0.7395   -2.1262    0.0954 S   0  0  0  0  0  0  0  0  0  0  0  0
   -0.4682   -1.7146    1.4073 C   0  0  0  0  0  0  0  0  0  0  0  0
   -0.7208    0.0563    1.6879 S   0  0  0  0  0  0  0  0  0  0  0  0
   -1.9531    0.5362    0.0421 P   0  0  0  0  0  0  0  0  0  0  0  0
   -2.2928    2.4446   -0.2354 S   0  0  0  0  0  0  0  0  0  0  0  0
   -3.2884   -0.3222    0.2427 O   0  0  0  0  0  0  0  0  0  0  0  0
   -4.4389    0.2073    0.9177 C   0  0  0  0  0  0  0  0  0  0  0  0
   -4.2059    0.3371    2.4095 C   0  0  0  0  0  0  0  0  0  0  0  0
   -1.2436   -0.3254   -1.0810 O   0  0  0  0  0  0  0  0  0  0  0  0
   -1.8110   -0.5612   -2.3892 C   0  0  0  0  0  0  0  0  0  0  0  0
   -1.5053    0.5799   -3.3381 C   0  0  0  0  0  0  0  0  0  0  0  0
    2.6483   -1.6943   -3.9087 H   0  0  0  0  0  0  0  0  0  0  0  0
    2.4392   -2.7512   -2.4965 H   0  0  0  0  0  0  0  0  0  0  0  0
    1.4342   -1.3062   -2.6784 H   0  0  0  0  0  0  0  0  0  0  0  0
    3.3893    0.1554   -2.3889 H   0  0  0  0  0  0  0  0  0  0  0  0
    4.4661   -1.2677   -2.2457 H   0  0  0  0  0  0  0  0  0  0  0  0
    2.2516    1.6154    2.0449 H   0  0  0  0  0  0  0  0  0  0  0  0
    2.9422    0.5166    3.2739 H   0  0  0  0  0  0  0  0  0  0  0  0
    4.9738    0.2400    1.8011 H   0  0  0  0  0  0  0  0  0  0  0  0
    4.2741    1.3952    0.6566 H   0  0  0  0  0  0  0  0  0  0  0  0
    4.7345    1.9329    2.2793 H   0  0  0  0  0  0  0  0  0  0  0  0
   -0.0980   -2.1084    2.3511 H   0  0  0  0  0  0  0  0  0  0  0  0
   -1.4092   -2.1808    1.1225 H   0  0  0  0  0  0  0  0  0  0  0  0
   -4.6760    1.1831    0.4816 H   0  0  0  0  0  0  0  0  0  0  0  0
   -5.2319   -0.5068    0.6918 H   0  0  0  0  0  0  0  0  0  0  0  0
   -3.9044   -0.6167    2.8343 H   0  0  0  0  0  0  0  0  0  0  0  0
   -3.4213    1.0701    2.5967 H   0  0  0  0  0  0  0  0  0  0  0  0
   -5.1206    0.6719    2.8877 H   0  0  0  0  0  0  0  0  0  0  0  0
   -1.3341   -1.4897   -2.7114 H   0  0  0  0  0  0  0  0  0  0  0  0
   -2.8875   -0.7153   -2.2852 H   0  0  0  0  0  0  0  0  0  0  0  0
   -1.8355    0.3167   -4.3377 H   0  0  0  0  0  0  0  0  0  0  0  0
   -2.0147    1.4870   -3.0185 H   0  0  0  0  0  0  0  0  0  0  0  0
   -0.4361    0.7801   -3.3505 H   0  0  0  0  0  0  0  0  0  0  0  0
  1  2  1  0  0  0  0
  2  3  1  0  0  0  0
  3  4  2  0  0  0  0
  4  5  2  0  0  0  0
  4  6  2  0  0  0  0
  6  7  1  0  0  0  0
  7  8  1  0  0  0  0
  4  9  1  0  0  0  0
  9 10  1  0  0  0  0
 10 11  1  0  0  0  0
 11 12  1  0  0  0  0
 12 13  2  0  0  0  0
 12 14  2  0  0  0  0
 14 15  1  0  0  0  0
 15 16  1  0  0  0  0
 12 17  2  0  0  0  0
 17 18  1  0  0  0  0
 18 19  1  0  0  0  0
  1 20  1  0  0  0  0
  1 21  1  0  0  0  0
  1 22  1  0  0  0  0
  2 23  1  0  0  0  0
  2 24  1  0  0  0  0
  7 25  1  0  0  0  0
  7 26  1  0  0  0  0
  8 27  1  0  0  0  0
  8 28  1  0  0  0  0
  8 29  1  0  0  0  0
 10 30  1  0  0  0  0
 10 31  1  0  0  0  0
 15 32  1  0  0  0  0
 15 33  1  0  0  0  0
 16 34  1  0  0  0  0
 16 35  1  0  0  0  0
 16 36  1  0  0  0  0
 18 37  1  0  0  0  0
 18 38  1  0  0  0  0
 19 39  1  0  0  0  0
 19 40  1  0  0  0  0
 19 41  1  0  0  0  0
M  END
