 xtb: 6.7.1 (edcfbbe)
          04032519413D

 20 19  0     0  0            999 V2000
   -1.2333    0.9643   -1.2561 C   0  0  0  0  0  0  0  0  0  0  0  0
   -1.0116    0.1121   -0.0006 C   0  0  0  0  0  0  0  0  0  0  0  0
   -1.9538   -1.0908   -0.0005 C   0  0  0  0  0  0  0  0  0  0  0  0
   -1.2303    0.9619    1.2568 C   0  0  0  0  0  0  0  0  0  0  0  0
    0.4294   -0.3782   -0.0022 C   0  0  0  0  0  0  0  0  0  0  0  0
    0.7669   -1.5440    0.0023 O   0  0  0  0  0  0  0  0  0  0  0  0
    1.2925    0.6303   -0.0014 O   0  0  0  0  0  0  0  0  0  0  0  0
    2.6922    0.3388    0.0010 C   0  0  0  0  0  0  0  0  0  0  0  0
   -0.5552    1.8132   -1.2627 H   0  0  0  0  0  0  0  0  0  0  0  0
   -1.0629    0.3721   -2.1525 H   0  0  0  0  0  0  0  0  0  0  0  0
   -2.2566    1.3292   -1.2707 H   0  0  0  0  0  0  0  0  0  0  0  0
   -2.9860   -0.7537    0.0018 H   0  0  0  0  0  0  0  0  0  0  0  0
   -1.7797   -1.7082    0.8773 H   0  0  0  0  0  0  0  0  0  0  0  0
   -1.7830   -1.7061   -0.8805 H   0  0  0  0  0  0  0  0  0  0  0  0
   -1.0505    0.3702    2.1517 H   0  0  0  0  0  0  0  0  0  0  0  0
   -0.5573    1.8148    1.2598 H   0  0  0  0  0  0  0  0  0  0  0  0
   -2.2556    1.3207    1.2785 H   0  0  0  0  0  0  0  0  0  0  0  0
    3.1582    1.0468    0.6816 H   0  0  0  0  0  0  0  0  0  0  0  0
    3.0792    0.4704   -1.0090 H   0  0  0  0  0  0  0  0  0  0  0  0
    2.8575   -0.6877    0.3303 H   0  0  0  0  0  0  0  0  0  0  0  0
  1  2  1  0  0  0  0
  2  3  1  0  0  0  0
  2  4  1  0  0  0  0
  2  5  1  0  0  0  0
  5  6  2  0  0  0  0
  5  7  1  0  0  0  0
  7  8  1  0  0  0  0
  1  9  1  0  0  0  0
  1 10  1  0  0  0  0
  1 11  1  0  0  0  0
  3 12  1  0  0  0  0
  3 13  1  0  0  0  0
  3 14  1  0  0  0  0
  4 15  1  0  0  0  0
  4 16  1  0  0  0  0
  4 17  1  0  0  0  0
  8 18  1  0  0  0  0
  8 19  1  0  0  0  0
  8 20  1  0  0  0  0
M  END
