 xtb: 6.7.1 (edcfbbe)
          04092513583D

 41 40  0     0  0            999 V2000
    2.1806   -2.0850    2.6834 C   0  0  0  0  0  0  0  0  0  0  0  0
    1.2677   -1.6889    1.5395 C   0  0  0  0  0  0  0  0  0  0  0  0
    1.4662   -0.3012    1.2211 O   0  0  0  0  0  0  0  0  0  0  0  0
    2.2220    0.2422   -0.0732 P   0  0  0  0  0  0  0  0  0  0  0  0
    3.1833   -1.1311   -1.0930 S   0  0  0  0  0  0  0  0  0  0  0  0
    3.0250    1.4851    0.4943 O   0  0  0  0  0  0  0  0  0  0  0  0
    3.9256    1.4045    1.6224 C   0  0  0  0  0  0  0  0  0  0  0  0
    5.3147    0.9571    1.2108 C   0  0  0  0  0  0  0  0  0  0  0  0
    0.8107    1.4091   -1.1319 S   0  0  0  0  0  0  0  0  0  0  0  0
    0.2170    0.1176   -2.2609 C   0  0  0  0  0  0  0  0  0  0  0  0
   -0.5644   -1.2762   -1.3994 S   0  0  0  0  0  0  0  0  0  0  0  0
   -2.1623   -0.2095   -0.5148 P   0  0  0  0  0  0  0  0  0  0  0  0
   -2.9299    1.2679   -1.5530 S   0  0  0  0  0  0  0  0  0  0  0  0
   -1.6709    0.1944    0.9472 O   0  0  0  0  0  0  0  0  0  0  0  0
   -1.5499    1.5412    1.4349 C   0  0  0  0  0  0  0  0  0  0  0  0
   -2.6735    1.8339    2.4101 C   0  0  0  0  0  0  0  0  0  0  0  0
   -3.0441   -1.4966   -0.2366 O   0  0  0  0  0  0  0  0  0  0  0  0
   -4.1564   -1.5131    0.6870 C   0  0  0  0  0  0  0  0  0  0  0  0
   -5.4447   -1.0543    0.0320 C   0  0  0  0  0  0  0  0  0  0  0  0
    1.9742   -3.1128    2.9635 H   0  0  0  0  0  0  0  0  0  0  0  0
    3.2207   -2.0065    2.3726 H   0  0  0  0  0  0  0  0  0  0  0  0
    2.0133   -1.4392    3.5414 H   0  0  0  0  0  0  0  0  0  0  0  0
    0.2136   -1.7811    1.8090 H   0  0  0  0  0  0  0  0  0  0  0  0
    1.4700   -2.2952    0.6506 H   0  0  0  0  0  0  0  0  0  0  0  0
    3.9403    2.4225    2.0161 H   0  0  0  0  0  0  0  0  0  0  0  0
    3.4997    0.7284    2.3682 H   0  0  0  0  0  0  0  0  0  0  0  0
    5.9670    0.9805    2.0787 H   0  0  0  0  0  0  0  0  0  0  0  0
    5.2900   -0.0545    0.8102 H   0  0  0  0  0  0  0  0  0  0  0  0
    5.7121    1.6201    0.4470 H   0  0  0  0  0  0  0  0  0  0  0  0
    1.0535   -0.2990   -2.8213 H   0  0  0  0  0  0  0  0  0  0  0  0
   -0.5041    0.5970   -2.9224 H   0  0  0  0  0  0  0  0  0  0  0  0
   -0.5705    1.5928    1.9149 H   0  0  0  0  0  0  0  0  0  0  0  0
   -1.5770    2.2352    0.5887 H   0  0  0  0  0  0  0  0  0  0  0  0
   -3.6309    1.8026    1.8934 H   0  0  0  0  0  0  0  0  0  0  0  0
   -2.6760    1.1027    3.2141 H   0  0  0  0  0  0  0  0  0  0  0  0
   -2.5322    2.8251    2.8282 H   0  0  0  0  0  0  0  0  0  0  0  0
   -4.2226   -2.5577    0.9966 H   0  0  0  0  0  0  0  0  0  0  0  0
   -3.9103   -0.8895    1.5504 H   0  0  0  0  0  0  0  0  0  0  0  0
   -5.3671   -0.0156   -0.2832 H   0  0  0  0  0  0  0  0  0  0  0  0
   -5.6599   -1.6643   -0.8411 H   0  0  0  0  0  0  0  0  0  0  0  0
   -6.2588   -1.1502    0.7443 H   0  0  0  0  0  0  0  0  0  0  0  0
  1  2  1  0  0  0  0
  2  3  1  0  0  0  0
  3  4  2  0  0  0  0
  4  5  2  0  0  0  0
  4  6  2  0  0  0  0
  6  7  1  0  0  0  0
  7  8  1  0  0  0  0
  4  9  1  0  0  0  0
  9 10  1  0  0  0  0
 10 11  1  0  0  0  0
 11 12  1  0  0  0  0
 12 13  2  0  0  0  0
 12 14  2  0  0  0  0
 14 15  1  0  0  0  0
 15 16  1  0  0  0  0
 12 17  2  0  0  0  0
 17 18  1  0  0  0  0
 18 19  1  0  0  0  0
  1 20  1  0  0  0  0
  1 21  1  0  0  0  0
  1 22  1  0  0  0  0
  2 23  1  0  0  0  0
  2 24  1  0  0  0  0
  7 25  1  0  0  0  0
  7 26  1  0  0  0  0
  8 27  1  0  0  0  0
  8 28  1  0  0  0  0
  8 29  1  0  0  0  0
 10 30  1  0  0  0  0
 10 31  1  0  0  0  0
 15 32  1  0  0  0  0
 15 33  1  0  0  0  0
 16 34  1  0  0  0  0
 16 35  1  0  0  0  0
 16 36  1  0  0  0  0
 18 37  1  0  0  0  0
 18 38  1  0  0  0  0
 19 39  1  0  0  0  0
 19 40  1  0  0  0  0
 19 41  1  0  0  0  0
M  END
