 xtb: 6.7.1 (edcfbbe)
          04092505213D

 41 40  0     0  0            999 V2000
    5.5574   -0.4192   -1.7329 C   0  0  0  0  0  0  0  0  0  0  0  0
    4.4585   -1.2538   -1.1062 C   0  0  0  0  0  0  0  0  0  0  0  0
    3.1818   -0.5804   -1.2103 O   0  0  0  0  0  0  0  0  0  0  0  0
    2.6192    0.3169   -0.0267 P   0  0  0  0  0  0  0  0  0  0  0  0
    3.7726    1.7333    0.6802 S   0  0  0  0  0  0  0  0  0  0  0  0
    2.2457   -0.8069    1.0472 O   0  0  0  0  0  0  0  0  0  0  0  0
    2.1288   -0.5153    2.4484 C   0  0  0  0  0  0  0  0  0  0  0  0
    0.9226    0.3490    2.7524 C   0  0  0  0  0  0  0  0  0  0  0  0
    0.8320    0.9350   -0.9542 S   0  0  0  0  0  0  0  0  0  0  0  0
    0.1644   -0.6914   -1.4365 C   0  0  0  0  0  0  0  0  0  0  0  0
   -0.7262   -1.5317   -0.1069 S   0  0  0  0  0  0  0  0  0  0  0  0
   -2.3812   -0.2177   -0.0668 P   0  0  0  0  0  0  0  0  0  0  0  0
   -2.9733    0.4501   -1.8190 S   0  0  0  0  0  0  0  0  0  0  0  0
   -1.8964    0.8860    0.9570 O   0  0  0  0  0  0  0  0  0  0  0  0
   -2.4059    2.2327    0.9299 C   0  0  0  0  0  0  0  0  0  0  0  0
   -3.8464    2.2821    1.3928 C   0  0  0  0  0  0  0  0  0  0  0  0
   -3.4373   -1.0055    0.8202 O   0  0  0  0  0  0  0  0  0  0  0  0
   -4.1030   -2.2037    0.3733 C   0  0  0  0  0  0  0  0  0  0  0  0
   -5.3948   -1.8777   -0.3513 C   0  0  0  0  0  0  0  0  0  0  0  0
    5.3089   -0.1896   -2.7654 H   0  0  0  0  0  0  0  0  0  0  0  0
    5.6798    0.5141   -1.1875 H   0  0  0  0  0  0  0  0  0  0  0  0
    6.4900   -0.9734   -1.7012 H   0  0  0  0  0  0  0  0  0  0  0  0
    4.6706   -1.4618   -0.0545 H   0  0  0  0  0  0  0  0  0  0  0  0
    4.3173   -2.1934   -1.6434 H   0  0  0  0  0  0  0  0  0  0  0  0
    2.0519   -1.4972    2.9167 H   0  0  0  0  0  0  0  0  0  0  0  0
    3.0453   -0.0114    2.7727 H   0  0  0  0  0  0  0  0  0  0  0  0
    0.0072   -0.1323    2.4172 H   0  0  0  0  0  0  0  0  0  0  0  0
    0.8644    0.5236    3.8219 H   0  0  0  0  0  0  0  0  0  0  0  0
    1.0220    1.3080    2.2426 H   0  0  0  0  0  0  0  0  0  0  0  0
    0.9772   -1.3391   -1.7492 H   0  0  0  0  0  0  0  0  0  0  0  0
   -0.5272   -0.4926   -2.2562 H   0  0  0  0  0  0  0  0  0  0  0  0
   -1.7413    2.7816    1.5981 H   0  0  0  0  0  0  0  0  0  0  0  0
   -2.3081    2.6229   -0.0885 H   0  0  0  0  0  0  0  0  0  0  0  0
   -3.9396    1.8305    2.3768 H   0  0  0  0  0  0  0  0  0  0  0  0
   -4.1799    3.3142    1.4323 H   0  0  0  0  0  0  0  0  0  0  0  0
   -4.4738    1.7321    0.6919 H   0  0  0  0  0  0  0  0  0  0  0  0
   -3.4250   -2.7746   -0.2676 H   0  0  0  0  0  0  0  0  0  0  0  0
   -4.2934   -2.7636    1.2908 H   0  0  0  0  0  0  0  0  0  0  0  0
   -5.1894   -1.3040   -1.2523 H   0  0  0  0  0  0  0  0  0  0  0  0
   -5.8931   -2.8015   -0.6269 H   0  0  0  0  0  0  0  0  0  0  0  0
   -6.0487   -1.2959    0.2925 H   0  0  0  0  0  0  0  0  0  0  0  0
  1  2  1  0  0  0  0
  2  3  1  0  0  0  0
  3  4  2  0  0  0  0
  4  5  2  0  0  0  0
  4  6  2  0  0  0  0
  6  7  1  0  0  0  0
  7  8  1  0  0  0  0
  4  9  1  0  0  0  0
  9 10  1  0  0  0  0
 10 11  1  0  0  0  0
 11 12  1  0  0  0  0
 12 13  2  0  0  0  0
 12 14  2  0  0  0  0
 14 15  1  0  0  0  0
 15 16  1  0  0  0  0
 12 17  2  0  0  0  0
 17 18  1  0  0  0  0
 18 19  1  0  0  0  0
  1 20  1  0  0  0  0
  1 21  1  0  0  0  0
  1 22  1  0  0  0  0
  2 23  1  0  0  0  0
  2 24  1  0  0  0  0
  7 25  1  0  0  0  0
  7 26  1  0  0  0  0
  8 27  1  0  0  0  0
  8 28  1  0  0  0  0
  8 29  1  0  0  0  0
 10 30  1  0  0  0  0
 10 31  1  0  0  0  0
 15 32  1  0  0  0  0
 15 33  1  0  0  0  0
 16 34  1  0  0  0  0
 16 35  1  0  0  0  0
 16 36  1  0  0  0  0
 18 37  1  0  0  0  0
 18 38  1  0  0  0  0
 19 39  1  0  0  0  0
 19 40  1  0  0  0  0
 19 41  1  0  0  0  0
M  END
