 xtb: 6.7.1 (edcfbbe)
          04092505203D

 41 40  0     0  0            999 V2000
    2.4317   -1.7345   -2.8426 C   0  0  0  0  0  0  0  0  0  0  0  0
    3.4523   -0.9029   -2.0926 C   0  0  0  0  0  0  0  0  0  0  0  0
    3.2623   -0.9821   -0.6708 O   0  0  0  0  0  0  0  0  0  0  0  0
    1.9644   -0.4077    0.0498 P   0  0  0  0  0  0  0  0  0  0  0  0
    1.4017    1.3214   -0.7179 S   0  0  0  0  0  0  0  0  0  0  0  0
    2.4022   -0.3874    1.5717 O   0  0  0  0  0  0  0  0  0  0  0  0
    2.9429    0.7848    2.2113 C   0  0  0  0  0  0  0  0  0  0  0  0
    4.3365    1.0998    1.7102 C   0  0  0  0  0  0  0  0  0  0  0  0
    0.7385   -2.1217    0.0994 S   0  0  0  0  0  0  0  0  0  0  0  0
   -0.4651   -1.7060    1.4134 C   0  0  0  0  0  0  0  0  0  0  0  0
   -0.7195    0.0659    1.6867 S   0  0  0  0  0  0  0  0  0  0  0  0
   -1.9554    0.5372    0.0414 P   0  0  0  0  0  0  0  0  0  0  0  0
   -2.3037    2.4438   -0.2374 S   0  0  0  0  0  0  0  0  0  0  0  0
   -3.2865   -0.3274    0.2436 O   0  0  0  0  0  0  0  0  0  0  0  0
   -4.4402    0.1971    0.9168 C   0  0  0  0  0  0  0  0  0  0  0  0
   -4.2142    0.3153    2.4106 C   0  0  0  0  0  0  0  0  0  0  0  0
   -1.2429   -0.3215   -1.0821 O   0  0  0  0  0  0  0  0  0  0  0  0
   -1.8124   -0.5590   -2.3892 C   0  0  0  0  0  0  0  0  0  0  0  0
   -1.5106    0.5821   -3.3392 C   0  0  0  0  0  0  0  0  0  0  0  0
    2.6523   -1.7111   -3.9049 H   0  0  0  0  0  0  0  0  0  0  0  0
    2.4463   -2.7621   -2.4879 H   0  0  0  0  0  0  0  0  0  0  0  0
    1.4363   -1.3216   -2.6770 H   0  0  0  0  0  0  0  0  0  0  0  0
    3.3853    0.1485   -2.3920 H   0  0  0  0  0  0  0  0  0  0  0  0
    4.4680   -1.2696   -2.2444 H   0  0  0  0  0  0  0  0  0  0  0  0
    2.2638    1.6250    2.0305 H   0  0  0  0  0  0  0  0  0  0  0  0
    2.9378    0.5298    3.2718 H   0  0  0  0  0  0  0  0  0  0  0  0
    4.9782    0.2293    1.8164 H   0  0  0  0  0  0  0  0  0  0  0  0
    4.2950    1.3808    0.6584 H   0  0  0  0  0  0  0  0  0  0  0  0
    4.7468    1.9271    2.2806 H   0  0  0  0  0  0  0  0  0  0  0  0
   -0.0912   -2.0946    2.3579 H   0  0  0  0  0  0  0  0  0  0  0  0
   -1.4063   -2.1751    1.1340 H   0  0  0  0  0  0  0  0  0  0  0  0
   -4.6753    1.1762    0.4870 H   0  0  0  0  0  0  0  0  0  0  0  0
   -5.2323   -0.5151    0.6817 H   0  0  0  0  0  0  0  0  0  0  0  0
   -3.4294    1.0454    2.6074 H   0  0  0  0  0  0  0  0  0  0  0  0
   -5.1308    0.6480    2.8868 H   0  0  0  0  0  0  0  0  0  0  0  0
   -3.9166   -0.6423    2.8296 H   0  0  0  0  0  0  0  0  0  0  0  0
   -1.3347   -1.4869   -2.7120 H   0  0  0  0  0  0  0  0  0  0  0  0
   -2.8884   -0.7148   -2.2831 H   0  0  0  0  0  0  0  0  0  0  0  0
   -1.8439    0.3183   -4.3376 H   0  0  0  0  0  0  0  0  0  0  0  0
   -2.0196    1.4889   -3.0182 H   0  0  0  0  0  0  0  0  0  0  0  0
   -0.4416    0.7831   -3.3552 H   0  0  0  0  0  0  0  0  0  0  0  0
  1  2  1  0  0  0  0
  2  3  1  0  0  0  0
  3  4  2  0  0  0  0
  4  5  2  0  0  0  0
  4  6  2  0  0  0  0
  6  7  1  0  0  0  0
  7  8  1  0  0  0  0
  4  9  1  0  0  0  0
  9 10  1  0  0  0  0
 10 11  1  0  0  0  0
 11 12  1  0  0  0  0
 12 13  2  0  0  0  0
 12 14  2  0  0  0  0
 14 15  1  0  0  0  0
 15 16  1  0  0  0  0
 12 17  2  0  0  0  0
 17 18  1  0  0  0  0
 18 19  1  0  0  0  0
  1 20  1  0  0  0  0
  1 21  1  0  0  0  0
  1 22  1  0  0  0  0
  2 23  1  0  0  0  0
  2 24  1  0  0  0  0
  7 25  1  0  0  0  0
  7 26  1  0  0  0  0
  8 27  1  0  0  0  0
  8 28  1  0  0  0  0
  8 29  1  0  0  0  0
 10 30  1  0  0  0  0
 10 31  1  0  0  0  0
 15 32  1  0  0  0  0
 15 33  1  0  0  0  0
 16 34  1  0  0  0  0
 16 35  1  0  0  0  0
 16 36  1  0  0  0  0
 18 37  1  0  0  0  0
 18 38  1  0  0  0  0
 19 39  1  0  0  0  0
 19 40  1  0  0  0  0
 19 41  1  0  0  0  0
M  END
