 xtb: 6.7.1 (edcfbbe)
          04092505213D

 41 40  0     0  0            999 V2000
    4.8526    1.6469   -0.2391 C   0  0  0  0  0  0  0  0  0  0  0  0
    4.0557    1.3094   -1.4820 C   0  0  0  0  0  0  0  0  0  0  0  0
    3.2918    0.0952   -1.3509 O   0  0  0  0  0  0  0  0  0  0  0  0
    2.3166   -0.2699   -0.1507 P   0  0  0  0  0  0  0  0  0  0  0  0
    3.1465   -0.8794    1.5217 S   0  0  0  0  0  0  0  0  0  0  0  0
    1.4041   -1.3530   -0.8521 O   0  0  0  0  0  0  0  0  0  0  0  0
    1.5570   -2.7796   -0.6936 C   0  0  0  0  0  0  0  0  0  0  0  0
    0.2604   -3.3752   -0.1835 C   0  0  0  0  0  0  0  0  0  0  0  0
    1.0467    1.4096   -0.0268 S   0  0  0  0  0  0  0  0  0  0  0  0
    0.3676    1.0654    1.6150 C   0  0  0  0  0  0  0  0  0  0  0  0
   -0.8368   -0.2945    1.6416 S   0  0  0  0  0  0  0  0  0  0  0  0
   -2.1121    0.3069    0.0516 P   0  0  0  0  0  0  0  0  0  0  0  0
   -1.7277   -0.3071   -1.7745 S   0  0  0  0  0  0  0  0  0  0  0  0
   -2.1110    1.8695    0.3005 O   0  0  0  0  0  0  0  0  0  0  0  0
   -2.4301    2.8055   -0.7503 C   0  0  0  0  0  0  0  0  0  0  0  0
   -3.9018    2.7653   -1.1028 C   0  0  0  0  0  0  0  0  0  0  0  0
   -3.5633   -0.1051    0.5581 O   0  0  0  0  0  0  0  0  0  0  0  0
   -4.1363   -1.3950    0.2983 C   0  0  0  0  0  0  0  0  0  0  0  0
   -3.5444   -2.4561    1.2037 C   0  0  0  0  0  0  0  0  0  0  0  0
    4.1820    1.8691    0.5900 H   0  0  0  0  0  0  0  0  0  0  0  0
    5.4861    0.8098    0.0448 H   0  0  0  0  0  0  0  0  0  0  0  0
    5.4722    2.5160   -0.4357 H   0  0  0  0  0  0  0  0  0  0  0  0
    4.7087    1.1088   -2.3333 H   0  0  0  0  0  0  0  0  0  0  0  0
    3.3626    2.1181   -1.7307 H   0  0  0  0  0  0  0  0  0  0  0  0
    1.8100   -3.1641   -1.6833 H   0  0  0  0  0  0  0  0  0  0  0  0
    2.3806   -2.9753    0.0010 H   0  0  0  0  0  0  0  0  0  0  0  0
    0.3394   -4.4572   -0.1837 H   0  0  0  0  0  0  0  0  0  0  0  0
    0.0620   -3.0292    0.8289 H   0  0  0  0  0  0  0  0  0  0  0  0
   -0.5590   -3.0730   -0.8320 H   0  0  0  0  0  0  0  0  0  0  0  0
   -0.1084    1.9799    1.9580 H   0  0  0  0  0  0  0  0  0  0  0  0
    1.1748    0.7581    2.2827 H   0  0  0  0  0  0  0  0  0  0  0  0
   -2.1348    3.7716   -0.3392 H   0  0  0  0  0  0  0  0  0  0  0  0
   -1.8132    2.5706   -1.6238 H   0  0  0  0  0  0  0  0  0  0  0  0
   -4.5054    2.9122   -0.2112 H   0  0  0  0  0  0  0  0  0  0  0  0
   -4.1213    3.5469   -1.8234 H   0  0  0  0  0  0  0  0  0  0  0  0
   -4.1497    1.7993   -1.5408 H   0  0  0  0  0  0  0  0  0  0  0  0
   -5.2027   -1.2573    0.4817 H   0  0  0  0  0  0  0  0  0  0  0  0
   -3.9693   -1.6438   -0.7557 H   0  0  0  0  0  0  0  0  0  0  0  0
   -3.6738   -2.1774    2.2459 H   0  0  0  0  0  0  0  0  0  0  0  0
   -4.0345   -3.4064    1.0187 H   0  0  0  0  0  0  0  0  0  0  0  0
   -2.4785   -2.5610    1.0030 H   0  0  0  0  0  0  0  0  0  0  0  0
  1  2  1  0  0  0  0
  2  3  1  0  0  0  0
  3  4  2  0  0  0  0
  4  5  2  0  0  0  0
  4  6  2  0  0  0  0
  6  7  1  0  0  0  0
  7  8  1  0  0  0  0
  4  9  1  0  0  0  0
  9 10  1  0  0  0  0
 10 11  1  0  0  0  0
 11 12  1  0  0  0  0
 12 13  2  0  0  0  0
 12 14  2  0  0  0  0
 14 15  1  0  0  0  0
 15 16  1  0  0  0  0
 12 17  2  0  0  0  0
 17 18  1  0  0  0  0
 18 19  1  0  0  0  0
  1 20  1  0  0  0  0
  1 21  1  0  0  0  0
  1 22  1  0  0  0  0
  2 23  1  0  0  0  0
  2 24  1  0  0  0  0
  7 25  1  0  0  0  0
  7 26  1  0  0  0  0
  8 27  1  0  0  0  0
  8 28  1  0  0  0  0
  8 29  1  0  0  0  0
 10 30  1  0  0  0  0
 10 31  1  0  0  0  0
 15 32  1  0  0  0  0
 15 33  1  0  0  0  0
 16 34  1  0  0  0  0
 16 35  1  0  0  0  0
 16 36  1  0  0  0  0
 18 37  1  0  0  0  0
 18 38  1  0  0  0  0
 19 39  1  0  0  0  0
 19 40  1  0  0  0  0
 19 41  1  0  0  0  0
M  END
