41
 xtb: 6.7.1 (edcfbbe)
C            2.99575604449455       -2.34656846870521        1.67177087716988
C            1.83507415779230       -1.97524497547496        0.78335467090266
O            1.71431778801667       -0.51755278471415        0.67575992165228
P            2.39474289457277        0.36533206937655       -0.48150439637169
S            3.31880639684120       -0.58654148789837       -1.90140375211278
O            3.34351348580008        1.39958174607611        0.29726619628856
C            2.88954409904203        2.08327804862811        1.52994163508001
C            3.61414600246891        1.51070776426606        2.71969249211200
S            0.83258656809049        1.67297334688358       -1.09558727908576
C           -0.06990549087849        0.61285870523283       -2.28864629166690
S           -0.82877835810246       -0.93903047592305       -1.66274546099893
P           -2.22766068671248       -0.20449777777840       -0.25522949778561
S           -3.06428299067819        1.50512342637957       -0.67295668822102
O           -1.39085632497667       -0.30455786025537        1.10554846477702
C           -1.89163006589205        0.24793482974375        2.37700264541599
C           -0.80218176050207        1.09740918609947        2.97887288132448
O           -3.20859798315573       -1.47266446150941       -0.09688837100148
C           -4.26610673175649       -1.74564172671791       -1.08486598449176
C           -5.58766941737341       -1.81954312310265       -0.36551620773007
H            3.94282911472671       -1.99361419572483        1.25209577099845
H            2.87214340255563       -1.93094373570058        2.67572478785050
H            3.04104839630120       -3.43777660677254        1.75394294865126
H            0.87934513021890       -2.29352069838342        1.20624744066186
H            1.93844896908855       -2.39473492517745       -0.22105262379493
H            3.12996518117038        3.13662642975210        1.36964411217522
H            1.80489442683370        1.98010018114268        1.63219044310661
H            3.31760133474345        2.06788055298814        3.61459218550045
H            3.35891382981218        0.45780818873293        2.86661705839045
H            4.69721480591050        1.60377066790897        2.59898920252875
H            0.61037660365715        0.29475461988899       -3.08450213249633
H           -0.84786643870715        1.25587065705742       -2.71032296685195
H           -2.79991440188564        0.82830309282575        2.18934307037328
H           -2.13907856630154       -0.61372772633838        3.00243102914824
H           -0.59153268812695        1.96411500065807        2.34563019200019
H           -1.12994674913442        1.45565120214562        3.96013354484833
H            0.11762800533376        0.51920404008134        3.11214497891766
H           -4.26593963946866       -0.95896125927556       -1.84535967112722
H           -3.99772411974192       -2.69574106762463       -1.55397931622651
H           -6.37039404009694       -2.08166830385858       -1.08467475341746
H           -5.56637774667027       -2.58588701302419        0.41454671785225
H           -5.84073001029245       -0.85607633473861        0.08642094208593
