 xtb: 6.7.1 (edcfbbe)
          04092505213D

 41 40  0     0  0            999 V2000
    5.4530   -0.7289   -0.9197 C   0  0  0  0  0  0  0  0  0  0  0  0
    4.7854   -0.2036    0.3363 C   0  0  0  0  0  0  0  0  0  0  0  0
    3.4526   -0.7332    0.4875 O   0  0  0  0  0  0  0  0  0  0  0  0
    2.1717   -0.0756   -0.1860 P   0  0  0  0  0  0  0  0  0  0  0  0
    2.0547   -0.0929   -2.1444 S   0  0  0  0  0  0  0  0  0  0  0  0
    2.1545    1.3693    0.4838 O   0  0  0  0  0  0  0  0  0  0  0  0
    1.8753    2.6020   -0.1985 C   0  0  0  0  0  0  0  0  0  0  0  0
    3.1621    3.3677   -0.4324 C   0  0  0  0  0  0  0  0  0  0  0  0
    0.8097   -1.2629    0.8910 S   0  0  0  0  0  0  0  0  0  0  0  0
   -0.2315   -1.9055   -0.4730 C   0  0  0  0  0  0  0  0  0  0  0  0
   -1.9781   -1.9025   -0.0334 S   0  0  0  0  0  0  0  0  0  0  0  0
   -2.1822    0.1927    0.2876 P   0  0  0  0  0  0  0  0  0  0  0  0
   -1.1535    1.3496   -0.9125 S   0  0  0  0  0  0  0  0  0  0  0  0
   -1.8059    0.4692    1.7919 O   0  0  0  0  0  0  0  0  0  0  0  0
   -2.0483   -0.4059    2.9212 C   0  0  0  0  0  0  0  0  0  0  0  0
   -3.5034   -0.7967    3.0573 C   0  0  0  0  0  0  0  0  0  0  0  0
   -3.7483    0.4505    0.2663 O   0  0  0  0  0  0  0  0  0  0  0  0
   -4.4802    0.7264   -0.9406 C   0  0  0  0  0  0  0  0  0  0  0  0
   -4.5175   -0.4631   -1.8783 C   0  0  0  0  0  0  0  0  0  0  0  0
    5.4646   -1.8153   -0.9083 H   0  0  0  0  0  0  0  0  0  0  0  0
    4.9135   -0.3988   -1.8051 H   0  0  0  0  0  0  0  0  0  0  0  0
    6.4722   -0.3584   -0.9655 H   0  0  0  0  0  0  0  0  0  0  0  0
    4.7381    0.8888    0.3338 H   0  0  0  0  0  0  0  0  0  0  0  0
    5.3064   -0.5434    1.2335 H   0  0  0  0  0  0  0  0  0  0  0  0
    1.3722    2.3867   -1.1464 H   0  0  0  0  0  0  0  0  0  0  0  0
    1.1884    3.1464    0.4518 H   0  0  0  0  0  0  0  0  0  0  0  0
    3.8028    2.8178   -1.1195 H   0  0  0  0  0  0  0  0  0  0  0  0
    2.9239    4.3317   -0.8698 H   0  0  0  0  0  0  0  0  0  0  0  0
    3.6860    3.5186    0.5079 H   0  0  0  0  0  0  0  0  0  0  0  0
    0.0354   -2.9419   -0.6632 H   0  0  0  0  0  0  0  0  0  0  0  0
   -0.0621   -1.2850   -1.3578 H   0  0  0  0  0  0  0  0  0  0  0  0
   -1.4084   -1.2863    2.8086 H   0  0  0  0  0  0  0  0  0  0  0  0
   -1.7063    0.1879    3.7700 H   0  0  0  0  0  0  0  0  0  0  0  0
   -3.6309   -1.3674    3.9718 H   0  0  0  0  0  0  0  0  0  0  0  0
   -4.1293    0.0910    3.0953 H   0  0  0  0  0  0  0  0  0  0  0  0
   -3.8102   -1.4087    2.2115 H   0  0  0  0  0  0  0  0  0  0  0  0
   -5.4769    0.9888   -0.5832 H   0  0  0  0  0  0  0  0  0  0  0  0
   -4.0225    1.5902   -1.4332 H   0  0  0  0  0  0  0  0  0  0  0  0
   -4.8587   -1.3508   -1.3522 H   0  0  0  0  0  0  0  0  0  0  0  0
   -5.1923   -0.2483   -2.7008 H   0  0  0  0  0  0  0  0  0  0  0  0
   -3.5238   -0.6530   -2.2811 H   0  0  0  0  0  0  0  0  0  0  0  0
  1  2  1  0  0  0  0
  2  3  1  0  0  0  0
  3  4  2  0  0  0  0
  4  5  2  0  0  0  0
  4  6  2  0  0  0  0
  6  7  1  0  0  0  0
  7  8  1  0  0  0  0
  4  9  1  0  0  0  0
  9 10  1  0  0  0  0
 10 11  1  0  0  0  0
 11 12  1  0  0  0  0
 12 13  2  0  0  0  0
 12 14  2  0  0  0  0
 14 15  1  0  0  0  0
 15 16  1  0  0  0  0
 12 17  2  0  0  0  0
 17 18  1  0  0  0  0
 18 19  1  0  0  0  0
  1 20  1  0  0  0  0
  1 21  1  0  0  0  0
  1 22  1  0  0  0  0
  2 23  1  0  0  0  0
  2 24  1  0  0  0  0
  7 25  1  0  0  0  0
  7 26  1  0  0  0  0
  8 27  1  0  0  0  0
  8 28  1  0  0  0  0
  8 29  1  0  0  0  0
 10 30  1  0  0  0  0
 10 31  1  0  0  0  0
 15 32  1  0  0  0  0
 15 33  1  0  0  0  0
 16 34  1  0  0  0  0
 16 35  1  0  0  0  0
 16 36  1  0  0  0  0
 18 37  1  0  0  0  0
 18 38  1  0  0  0  0
 19 39  1  0  0  0  0
 19 40  1  0  0  0  0
 19 41  1  0  0  0  0
M  END
