 xtb: 6.7.1 (edcfbbe)
          04092505213D

 41 40  0     0  0            999 V2000
    4.2430   -1.5509   -2.3982 C   0  0  0  0  0  0  0  0  0  0  0  0
    3.2393   -2.4591   -1.7183 C   0  0  0  0  0  0  0  0  0  0  0  0
    2.8550   -1.9859   -0.4136 O   0  0  0  0  0  0  0  0  0  0  0  0
    2.2565   -0.5558   -0.0947 P   0  0  0  0  0  0  0  0  0  0  0  0
    3.4864    0.9727    0.0214 S   0  0  0  0  0  0  0  0  0  0  0  0
    1.5562   -0.9351    1.2735 O   0  0  0  0  0  0  0  0  0  0  0  0
    1.6708   -0.1830    2.4984 C   0  0  0  0  0  0  0  0  0  0  0  0
    0.3733   -0.3124    3.2699 C   0  0  0  0  0  0  0  0  0  0  0  0
    0.7075   -0.3725   -1.5473 S   0  0  0  0  0  0  0  0  0  0  0  0
    0.4421    1.4010   -1.3341 C   0  0  0  0  0  0  0  0  0  0  0  0
   -0.2083    1.8004    0.3117 S   0  0  0  0  0  0  0  0  0  0  0  0
   -2.0764    0.8401    0.0674 P   0  0  0  0  0  0  0  0  0  0  0  0
   -2.9217    0.9732   -1.6982 S   0  0  0  0  0  0  0  0  0  0  0  0
   -2.7793    1.5957    1.2701 O   0  0  0  0  0  0  0  0  0  0  0  0
   -4.2129    1.7120    1.3735 C   0  0  0  0  0  0  0  0  0  0  0  0
   -4.8846    0.3651    1.5465 C   0  0  0  0  0  0  0  0  0  0  0  0
   -1.9077   -0.6442    0.6181 O   0  0  0  0  0  0  0  0  0  0  0  0
   -2.0838   -1.8493   -0.1544 C   0  0  0  0  0  0  0  0  0  0  0  0
   -1.1586   -2.9161    0.3939 C   0  0  0  0  0  0  0  0  0  0  0  0
    5.1056   -1.3911   -1.7556 H   0  0  0  0  0  0  0  0  0  0  0  0
    4.5673   -2.0045   -3.3293 H   0  0  0  0  0  0  0  0  0  0  0  0
    3.7908   -0.5838   -2.6137 H   0  0  0  0  0  0  0  0  0  0  0  0
    3.6646   -3.4438   -1.5164 H   0  0  0  0  0  0  0  0  0  0  0  0
    2.3360   -2.5626   -2.3261 H   0  0  0  0  0  0  0  0  0  0  0  0
    2.5062   -0.6082    3.0598 H   0  0  0  0  0  0  0  0  0  0  0  0
    1.8963    0.8624    2.2631 H   0  0  0  0  0  0  0  0  0  0  0  0
    0.4723    0.2104    4.2155 H   0  0  0  0  0  0  0  0  0  0  0  0
   -0.4504    0.1233    2.7088 H   0  0  0  0  0  0  0  0  0  0  0  0
    0.1566   -1.3603    3.4554 H   0  0  0  0  0  0  0  0  0  0  0  0
   -0.2693    1.7102   -2.0996 H   0  0  0  0  0  0  0  0  0  0  0  0
    1.3912    1.9283   -1.4313 H   0  0  0  0  0  0  0  0  0  0  0  0
   -4.3587    2.3530    2.2440 H   0  0  0  0  0  0  0  0  0  0  0  0
   -4.5833    2.2151    0.4749 H   0  0  0  0  0  0  0  0  0  0  0  0
   -4.4415   -0.1724    2.3810 H   0  0  0  0  0  0  0  0  0  0  0  0
   -5.9439    0.5127    1.7328 H   0  0  0  0  0  0  0  0  0  0  0  0
   -4.7664   -0.2253    0.6380 H   0  0  0  0  0  0  0  0  0  0  0  0
   -3.1297   -2.1505   -0.0531 H   0  0  0  0  0  0  0  0  0  0  0  0
   -1.8768   -1.6379   -1.2076 H   0  0  0  0  0  0  0  0  0  0  0  0
   -1.3817   -3.0984    1.4409 H   0  0  0  0  0  0  0  0  0  0  0  0
   -1.3021   -3.8313   -0.1709 H   0  0  0  0  0  0  0  0  0  0  0  0
   -0.1206   -2.6035    0.3084 H   0  0  0  0  0  0  0  0  0  0  0  0
  1  2  1  0  0  0  0
  2  3  1  0  0  0  0
  3  4  2  0  0  0  0
  4  5  2  0  0  0  0
  4  6  2  0  0  0  0
  6  7  1  0  0  0  0
  7  8  1  0  0  0  0
  4  9  1  0  0  0  0
  9 10  1  0  0  0  0
 10 11  1  0  0  0  0
 11 12  1  0  0  0  0
 12 13  2  0  0  0  0
 12 14  2  0  0  0  0
 14 15  1  0  0  0  0
 15 16  1  0  0  0  0
 12 17  2  0  0  0  0
 17 18  1  0  0  0  0
 18 19  1  0  0  0  0
  1 20  1  0  0  0  0
  1 21  1  0  0  0  0
  1 22  1  0  0  0  0
  2 23  1  0  0  0  0
  2 24  1  0  0  0  0
  7 25  1  0  0  0  0
  7 26  1  0  0  0  0
  8 27  1  0  0  0  0
  8 28  1  0  0  0  0
  8 29  1  0  0  0  0
 10 30  1  0  0  0  0
 10 31  1  0  0  0  0
 15 32  1  0  0  0  0
 15 33  1  0  0  0  0
 16 34  1  0  0  0  0
 16 35  1  0  0  0  0
 16 36  1  0  0  0  0
 18 37  1  0  0  0  0
 18 38  1  0  0  0  0
 19 39  1  0  0  0  0
 19 40  1  0  0  0  0
 19 41  1  0  0  0  0
M  END
