 xtb: 6.7.1 (edcfbbe)
          04092505203D

 41 40  0     0  0            999 V2000
    4.6425    0.3373   -1.8489 C   0  0  0  0  0  0  0  0  0  0  0  0
    4.5490    0.6682   -0.3734 C   0  0  0  0  0  0  0  0  0  0  0  0
    3.6578   -0.2170    0.3255 O   0  0  0  0  0  0  0  0  0  0  0  0
    2.0888   -0.2257    0.0817 P   0  0  0  0  0  0  0  0  0  0  0  0
    1.2900    1.5543   -0.1708 S   0  0  0  0  0  0  0  0  0  0  0  0
    1.5742   -1.0751    1.3127 O   0  0  0  0  0  0  0  0  0  0  0  0
    1.1716   -0.4983    2.5710 C   0  0  0  0  0  0  0  0  0  0  0  0
    2.3141    0.2169    3.2602 C   0  0  0  0  0  0  0  0  0  0  0  0
    1.8116   -1.6470   -1.4475 S   0  0  0  0  0  0  0  0  0  0  0  0
    0.0870   -1.2726   -1.8468 C   0  0  0  0  0  0  0  0  0  0  0  0
   -1.0544   -1.6227   -0.4698 S   0  0  0  0  0  0  0  0  0  0  0  0
   -2.1263    0.1991   -0.4053 P   0  0  0  0  0  0  0  0  0  0  0  0
   -1.9706    1.4061   -1.9341 S   0  0  0  0  0  0  0  0  0  0  0  0
   -1.6618    0.7983    1.0059 O   0  0  0  0  0  0  0  0  0  0  0  0
   -1.7682    2.2048    1.2867 C   0  0  0  0  0  0  0  0  0  0  0  0
   -3.2116    2.6414    1.4237 C   0  0  0  0  0  0  0  0  0  0  0  0
   -3.6392   -0.2526   -0.2382 O   0  0  0  0  0  0  0  0  0  0  0  0
   -4.1222   -1.4238    0.4577 C   0  0  0  0  0  0  0  0  0  0  0  0
   -3.6501   -1.4925    1.8949 C   0  0  0  0  0  0  0  0  0  0  0  0
    4.8810   -0.7144   -1.9861 H   0  0  0  0  0  0  0  0  0  0  0  0
    3.6924    0.5473   -2.3392 H   0  0  0  0  0  0  0  0  0  0  0  0
    5.4152    0.9469   -2.3063 H   0  0  0  0  0  0  0  0  0  0  0  0
    4.1975    1.6955   -0.2323 H   0  0  0  0  0  0  0  0  0  0  0  0
    5.5054    0.5292    0.1324 H   0  0  0  0  0  0  0  0  0  0  0  0
    0.3374    0.1848    2.3841 H   0  0  0  0  0  0  0  0  0  0  0  0
    0.8234   -1.3577    3.1458 H   0  0  0  0  0  0  0  0  0  0  0  0
    1.9918    0.5506    4.2416 H   0  0  0  0  0  0  0  0  0  0  0  0
    3.1649   -0.4513    3.3649 H   0  0  0  0  0  0  0  0  0  0  0  0
    2.6170    1.0830    2.6724 H   0  0  0  0  0  0  0  0  0  0  0  0
   -0.1716   -1.9217   -2.6796 H   0  0  0  0  0  0  0  0  0  0  0  0
   -0.0194   -0.2198   -2.1247 H   0  0  0  0  0  0  0  0  0  0  0  0
   -1.2123    2.3367    2.2165 H   0  0  0  0  0  0  0  0  0  0  0  0
   -1.2665    2.7588    0.4860 H   0  0  0  0  0  0  0  0  0  0  0  0
   -3.7381    2.4637    0.4860 H   0  0  0  0  0  0  0  0  0  0  0  0
   -3.7033    2.0847    2.2171 H   0  0  0  0  0  0  0  0  0  0  0  0
   -3.2450    3.7019    1.6526 H   0  0  0  0  0  0  0  0  0  0  0  0
   -5.2067   -1.3221    0.3927 H   0  0  0  0  0  0  0  0  0  0  0  0
   -3.7984   -2.3073   -0.0980 H   0  0  0  0  0  0  0  0  0  0  0  0
   -3.9564   -0.6036    2.4398 H   0  0  0  0  0  0  0  0  0  0  0  0
   -4.0816   -2.3691    2.3679 H   0  0  0  0  0  0  0  0  0  0  0  0
   -2.5644   -1.5713    1.9277 H   0  0  0  0  0  0  0  0  0  0  0  0
  1  2  1  0  0  0  0
  2  3  1  0  0  0  0
  3  4  2  0  0  0  0
  4  5  2  0  0  0  0
  4  6  2  0  0  0  0
  6  7  1  0  0  0  0
  7  8  1  0  0  0  0
  4  9  1  0  0  0  0
  9 10  1  0  0  0  0
 10 11  1  0  0  0  0
 11 12  1  0  0  0  0
 12 13  2  0  0  0  0
 12 14  1  0  0  0  0
 14 15  1  0  0  0  0
 15 16  1  0  0  0  0
 12 17  2  0  0  0  0
 17 18  1  0  0  0  0
 18 19  1  0  0  0  0
  1 20  1  0  0  0  0
  1 21  1  0  0  0  0
  1 22  1  0  0  0  0
  2 23  1  0  0  0  0
  2 24  1  0  0  0  0
  7 25  1  0  0  0  0
  7 26  1  0  0  0  0
  8 27  1  0  0  0  0
  8 28  1  0  0  0  0
  8 29  1  0  0  0  0
 10 30  1  0  0  0  0
 10 31  1  0  0  0  0
 15 32  1  0  0  0  0
 15 33  1  0  0  0  0
 16 34  1  0  0  0  0
 16 35  1  0  0  0  0
 16 36  1  0  0  0  0
 18 37  1  0  0  0  0
 18 38  1  0  0  0  0
 19 39  1  0  0  0  0
 19 40  1  0  0  0  0
 19 41  1  0  0  0  0
M  END
