 xtb: 6.7.1 (edcfbbe)
          04092505213D

 41 40  0     0  0            999 V2000
    4.1227   -3.3405   -1.4499 C   0  0  0  0  0  0  0  0  0  0  0  0
    2.9150   -2.4725   -1.1659 C   0  0  0  0  0  0  0  0  0  0  0  0
    3.4002   -1.1593   -0.7816 O   0  0  0  0  0  0  0  0  0  0  0  0
    2.4476   -0.0608   -0.1584 P   0  0  0  0  0  0  0  0  0  0  0  0
    3.3997    1.5933    0.2502 S   0  0  0  0  0  0  0  0  0  0  0  0
    1.6966   -0.7531    1.0788 O   0  0  0  0  0  0  0  0  0  0  0  0
    2.1339   -0.5518    2.4355 C   0  0  0  0  0  0  0  0  0  0  0  0
    3.4084   -1.3208    2.7179 C   0  0  0  0  0  0  0  0  0  0  0  0
    0.8422    0.0493   -1.5327 S   0  0  0  0  0  0  0  0  0  0  0  0
    0.1903    1.6323   -0.9410 C   0  0  0  0  0  0  0  0  0  0  0  0
   -0.5732    1.5207    0.7006 S   0  0  0  0  0  0  0  0  0  0  0  0
   -2.4245    0.6608    0.1092 P   0  0  0  0  0  0  0  0  0  0  0  0
   -2.8951    0.7961   -1.7935 S   0  0  0  0  0  0  0  0  0  0  0  0
   -3.3802    1.4534    1.0875 O   0  0  0  0  0  0  0  0  0  0  0  0
   -4.7824    1.6365    0.8054 C   0  0  0  0  0  0  0  0  0  0  0  0
   -5.5500    0.3384    0.9421 C   0  0  0  0  0  0  0  0  0  0  0  0
   -2.4632   -0.7811    0.7826 O   0  0  0  0  0  0  0  0  0  0  0  0
   -1.5813   -1.8821    0.5074 C   0  0  0  0  0  0  0  0  0  0  0  0
   -1.8100   -2.4863   -0.8642 C   0  0  0  0  0  0  0  0  0  0  0  0
    3.7883   -4.3251   -1.7600 H   0  0  0  0  0  0  0  0  0  0  0  0
    4.7197   -2.8973   -2.2415 H   0  0  0  0  0  0  0  0  0  0  0  0
    4.7384   -3.4323   -0.5596 H   0  0  0  0  0  0  0  0  0  0  0  0
    2.3110   -2.8743   -0.3486 H   0  0  0  0  0  0  0  0  0  0  0  0
    2.2876   -2.3526   -2.0528 H   0  0  0  0  0  0  0  0  0  0  0  0
    2.2820    0.5203    2.5982 H   0  0  0  0  0  0  0  0  0  0  0  0
    1.2987   -0.9028    3.0430 H   0  0  0  0  0  0  0  0  0  0  0  0
    4.2054   -0.9557    2.0701 H   0  0  0  0  0  0  0  0  0  0  0  0
    3.6990   -1.1703    3.7528 H   0  0  0  0  0  0  0  0  0  0  0  0
    3.2611   -2.3821    2.5358 H   0  0  0  0  0  0  0  0  0  0  0  0
   -0.5535    1.9519   -1.6710 H   0  0  0  0  0  0  0  0  0  0  0  0
    1.0076    2.3483   -0.8590 H   0  0  0  0  0  0  0  0  0  0  0  0
   -5.1026    2.3792    1.5371 H   0  0  0  0  0  0  0  0  0  0  0  0
   -4.8852    2.0416   -0.2065 H   0  0  0  0  0  0  0  0  0  0  0  0
   -5.3830   -0.0947    1.9246 H   0  0  0  0  0  0  0  0  0  0  0  0
   -6.6097    0.5280    0.8031 H   0  0  0  0  0  0  0  0  0  0  0  0
   -5.2119   -0.3674    0.1844 H   0  0  0  0  0  0  0  0  0  0  0  0
   -0.5465   -1.5443    0.6172 H   0  0  0  0  0  0  0  0  0  0  0  0
   -1.8169   -2.5974    1.2981 H   0  0  0  0  0  0  0  0  0  0  0  0
   -1.5249   -1.7848   -1.6456 H   0  0  0  0  0  0  0  0  0  0  0  0
   -1.2079   -3.3838   -0.9630 H   0  0  0  0  0  0  0  0  0  0  0  0
   -2.8585   -2.7428   -0.9915 H   0  0  0  0  0  0  0  0  0  0  0  0
  1  2  1  0  0  0  0
  2  3  1  0  0  0  0
  3  4  2  0  0  0  0
  4  5  2  0  0  0  0
  4  6  1  0  0  0  0
  6  7  1  0  0  0  0
  7  8  1  0  0  0  0
  4  9  1  0  0  0  0
  9 10  1  0  0  0  0
 10 11  1  0  0  0  0
 11 12  1  0  0  0  0
 12 13  2  0  0  0  0
 12 14  2  0  0  0  0
 14 15  1  0  0  0  0
 15 16  1  0  0  0  0
 12 17  2  0  0  0  0
 17 18  1  0  0  0  0
 18 19  1  0  0  0  0
  1 20  1  0  0  0  0
  1 21  1  0  0  0  0
  1 22  1  0  0  0  0
  2 23  1  0  0  0  0
  2 24  1  0  0  0  0
  7 25  1  0  0  0  0
  7 26  1  0  0  0  0
  8 27  1  0  0  0  0
  8 28  1  0  0  0  0
  8 29  1  0  0  0  0
 10 30  1  0  0  0  0
 10 31  1  0  0  0  0
 15 32  1  0  0  0  0
 15 33  1  0  0  0  0
 16 34  1  0  0  0  0
 16 35  1  0  0  0  0
 16 36  1  0  0  0  0
 18 37  1  0  0  0  0
 18 38  1  0  0  0  0
 19 39  1  0  0  0  0
 19 40  1  0  0  0  0
 19 41  1  0  0  0  0
M  END
