 xtb: 6.7.1 (edcfbbe)
          04092505203D

 41 40  0     0  0            999 V2000
    4.3769   -0.7943   -1.6320 C   0  0  0  0  0  0  0  0  0  0  0  0
    4.5029    0.5350   -0.9157 C   0  0  0  0  0  0  0  0  0  0  0  0
    3.6475    0.6217    0.2350 O   0  0  0  0  0  0  0  0  0  0  0  0
    2.0577    0.6124    0.1251 P   0  0  0  0  0  0  0  0  0  0  0  0
    1.3493    1.6018   -1.4123 S   0  0  0  0  0  0  0  0  0  0  0  0
    1.6489    1.2365    1.5163 O   0  0  0  0  0  0  0  0  0  0  0  0
    2.4377    1.1342    2.7310 C   0  0  0  0  0  0  0  0  0  0  0  0
    2.6417   -0.2975    3.1804 C   0  0  0  0  0  0  0  0  0  0  0  0
    1.5192   -1.4507    0.2299 S   0  0  0  0  0  0  0  0  0  0  0  0
    0.4021   -1.6210   -1.1895 C   0  0  0  0  0  0  0  0  0  0  0  0
   -1.2895   -2.0456   -0.6969 S   0  0  0  0  0  0  0  0  0  0  0  0
   -2.0292   -0.0629   -0.4725 P   0  0  0  0  0  0  0  0  0  0  0  0
   -2.0283    1.0261   -2.0973 S   0  0  0  0  0  0  0  0  0  0  0  0
   -1.2159    0.5586    0.7304 O   0  0  0  0  0  0  0  0  0  0  0  0
   -1.3576    0.0489    2.0856 C   0  0  0  0  0  0  0  0  0  0  0  0
   -2.3409    0.8887    2.8719 C   0  0  0  0  0  0  0  0  0  0  0  0
   -3.4622   -0.3153    0.1591 O   0  0  0  0  0  0  0  0  0  0  0  0
   -4.5385   -0.8382   -0.6473 C   0  0  0  0  0  0  0  0  0  0  0  0
   -5.8378   -0.5812    0.0884 C   0  0  0  0  0  0  0  0  0  0  0  0
    4.5011   -1.6176   -0.9332 H   0  0  0  0  0  0  0  0  0  0  0  0
    3.3966   -0.8692   -2.1013 H   0  0  0  0  0  0  0  0  0  0  0  0
    5.1374   -0.8576   -2.4036 H   0  0  0  0  0  0  0  0  0  0  0  0
    4.2557    1.3588   -1.5925 H   0  0  0  0  0  0  0  0  0  0  0  0
    5.5035    0.6774   -0.5051 H   0  0  0  0  0  0  0  0  0  0  0  0
    3.3965    1.6248    2.5544 H   0  0  0  0  0  0  0  0  0  0  0  0
    1.8557    1.7085    3.4536 H   0  0  0  0  0  0  0  0  0  0  0  0
    3.2049   -0.2964    4.1086 H   0  0  0  0  0  0  0  0  0  0  0  0
    1.6902   -0.7972    3.3427 H   0  0  0  0  0  0  0  0  0  0  0  0
    3.1999   -0.8515    2.4279 H   0  0  0  0  0  0  0  0  0  0  0  0
    0.7607   -2.4438   -1.8017 H   0  0  0  0  0  0  0  0  0  0  0  0
    0.3898   -0.6797   -1.7493 H   0  0  0  0  0  0  0  0  0  0  0  0
   -1.6692   -0.9981    2.0391 H   0  0  0  0  0  0  0  0  0  0  0  0
   -0.3539    0.1204    2.5055 H   0  0  0  0  0  0  0  0  0  0  0  0
   -2.3646    0.5362    3.8984 H   0  0  0  0  0  0  0  0  0  0  0  0
   -2.0333    1.9311    2.8544 H   0  0  0  0  0  0  0  0  0  0  0  0
   -3.3349    0.8101    2.4402 H   0  0  0  0  0  0  0  0  0  0  0  0
   -4.5180   -0.3368   -1.6205 H   0  0  0  0  0  0  0  0  0  0  0  0
   -4.3634   -1.9075   -0.7920 H   0  0  0  0  0  0  0  0  0  0  0  0
   -5.9840    0.4865    0.2267 H   0  0  0  0  0  0  0  0  0  0  0  0
   -6.6602   -0.9810   -0.4954 H   0  0  0  0  0  0  0  0  0  0  0  0
   -5.8175   -1.0658    1.0602 H   0  0  0  0  0  0  0  0  0  0  0  0
  1  2  1  0  0  0  0
  2  3  1  0  0  0  0
  3  4  2  0  0  0  0
  4  5  2  0  0  0  0
  4  6  2  0  0  0  0
  6  7  1  0  0  0  0
  7  8  1  0  0  0  0
  4  9  1  0  0  0  0
  9 10  1  0  0  0  0
 10 11  1  0  0  0  0
 11 12  1  0  0  0  0
 12 13  2  0  0  0  0
 12 14  2  0  0  0  0
 14 15  1  0  0  0  0
 15 16  1  0  0  0  0
 12 17  2  0  0  0  0
 17 18  1  0  0  0  0
 18 19  1  0  0  0  0
  1 20  1  0  0  0  0
  1 21  1  0  0  0  0
  1 22  1  0  0  0  0
  2 23  1  0  0  0  0
  2 24  1  0  0  0  0
  7 25  1  0  0  0  0
  7 26  1  0  0  0  0
  8 27  1  0  0  0  0
  8 28  1  0  0  0  0
  8 29  1  0  0  0  0
 10 30  1  0  0  0  0
 10 31  1  0  0  0  0
 15 32  1  0  0  0  0
 15 33  1  0  0  0  0
 16 34  1  0  0  0  0
 16 35  1  0  0  0  0
 16 36  1  0  0  0  0
 18 37  1  0  0  0  0
 18 38  1  0  0  0  0
 19 39  1  0  0  0  0
 19 40  1  0  0  0  0
 19 41  1  0  0  0  0
M  END
