 xtb: 6.7.1 (edcfbbe)
          04032519593D

  6  5  0     0  0            999 V2000
    0.0000    1.8140   -0.0002 C   0  0  0  0  0  0  0  0  0  0  0  0
    0.0000    0.4971   -0.0023 C   0  0  0  0  0  0  0  0  0  0  0  0
    1.4415   -0.4586    0.0003 Cl  0  0  0  0  0  0  0  0  0  0  0  0
   -1.4415   -0.4586    0.0003 Cl  0  0  0  0  0  0  0  0  0  0  0  0
   -0.9235    2.3622    0.0054 H   0  0  0  0  0  0  0  0  0  0  0  0
    0.9236    2.3622    0.0060 H   0  0  0  0  0  0  0  0  0  0  0  0
  1  2  2  0  0  0  0
  2  3  1  0  0  0  0
  2  4  1  0  0  0  0
  1  5  1  0  0  0  0
  1  6  1  0  0  0  0
M  END
