20
 xtb: 6.7.1 (edcfbbe)
C            0.89102932184963        1.39433565657916       -0.63832740823161
C            1.60765443069683        0.18902735028218       -0.04972727477932
H            2.58321127496245        0.08489503131476       -0.53733800036824
C            0.79311638623608       -1.08752086656132       -0.29287816808204
H            1.22537544251383       -1.90876276127912        0.29697058482905
C           -0.67453181107966       -0.89263803093438        0.12866395293355
H           -1.27289332019750       -1.74287904837604       -0.22816268685482
C           -1.24879288145198        0.39035371937346       -0.46619310910854
H           -1.28789574975159        0.31269732070636       -1.56111569985148
O           -0.43916705083039        1.51608353774748       -0.09893747237000
O           -2.55463004082103        0.63973320540807       -0.01705951932772
O           -0.78291896397094       -0.76208288125300        1.55586621265407
O            0.87146944150821       -1.37055766562226       -1.69442314525411
O            1.86197882135084        0.36349609468054        1.35074510779907
H            0.84563778177806        1.31102033682913       -1.73415335728939
H            1.41624435368688        2.31507631972512       -0.37349458603037
H           -2.57292090765736        0.45030246109678        0.93417899224960
H           -0.62236522427294       -1.63218668180862        1.94482854480335
H            0.38251050345439       -2.18860754087600       -1.85743351965329
H            1.00757341343376        0.26609216312278        1.80232556406377
