 xtb: 6.7.1 (edcfbbe)
          04032519433D

  8  7  0     0  0            999 V2000
    0.7212    0.5771   -0.2375 C   0  0  0  0  0  0  0  0  0  0  0  0
   -0.7206    0.5767    0.2378 C   0  0  0  0  0  0  0  0  0  0  0  0
   -1.8017    0.6466   -1.1727 Cl  0  0  0  0  0  0  0  0  0  0  0  0
   -1.0790   -0.8834    1.1911 Cl  0  0  0  0  0  0  0  0  0  0  0  0
    1.8022    0.6464    1.1732 Cl  0  0  0  0  0  0  0  0  0  0  0  0
    1.0783   -0.8828   -1.1917 Cl  0  0  0  0  0  0  0  0  0  0  0  0
    0.9282    1.4465   -0.8656 H   0  0  0  0  0  0  0  0  0  0  0  0
   -0.9278    1.4460    0.8662 H   0  0  0  0  0  0  0  0  0  0  0  0
  1  2  1  0  0  0  0
  2  3  1  0  0  0  0
  2  4  1  0  0  0  0
  1  5  1  0  0  0  0
  1  6  1  0  0  0  0
  1  7  1  0  0  0  0
  2  8  1  0  0  0  0
M  END
