 xtb: 6.7.1 (edcfbbe)
          04032519453D

  8  7  0     0  0            999 V2000
    1.2680    0.3195   -1.1593 C   0  0  0  0  0  0  0  0  0  0  0  0
    0.0356   -0.5515   -1.1337 C   0  0  0  0  0  0  0  0  0  0  0  0
   -1.2275    0.0015    0.2739 Br  0  0  0  0  0  0  0  0  0  0  0  0
    2.2481    0.0932    0.3340 Cl  0  0  0  0  0  0  0  0  0  0  0  0
    1.9026    0.0358   -1.9980 H   0  0  0  0  0  0  0  0  0  0  0  0
    1.0169    1.3781   -1.2135 H   0  0  0  0  0  0  0  0  0  0  0  0
    0.2783   -1.5915   -0.9241 H   0  0  0  0  0  0  0  0  0  0  0  0
   -0.5103   -0.4673   -2.0725 H   0  0  0  0  0  0  0  0  0  0  0  0
  1  2  1  0  0  0  0
  2  3  1  0  0  0  0
  1  4  1  0  0  0  0
  1  5  1  0  0  0  0
  1  6  1  0  0  0  0
  2  7  1  0  0  0  0
  2  8  1  0  0  0  0
M  END
