 xtb: 6.7.1 (edcfbbe)
          04092505213D

 41 40  0     0  0            999 V2000
    4.2735   -1.8346   -1.6846 C   0  0  0  0  0  0  0  0  0  0  0  0
    4.4129   -0.5659   -0.8666 C   0  0  0  0  0  0  0  0  0  0  0  0
    3.3572    0.3734   -1.2065 O   0  0  0  0  0  0  0  0  0  0  0  0
    2.1608    0.7468   -0.2528 P   0  0  0  0  0  0  0  0  0  0  0  0
    1.1063    2.1855   -1.0502 S   0  0  0  0  0  0  0  0  0  0  0  0
    2.9179    1.0796    1.1014 O   0  0  0  0  0  0  0  0  0  0  0  0
    2.3009    1.5946    2.2959 C   0  0  0  0  0  0  0  0  0  0  0  0
    2.0262    0.4770    3.2821 C   0  0  0  0  0  0  0  0  0  0  0  0
    1.2027   -1.1224    0.1428 S   0  0  0  0  0  0  0  0  0  0  0  0
    0.4529   -1.3316   -1.4866 C   0  0  0  0  0  0  0  0  0  0  0  0
   -1.1015   -0.4027   -1.7652 S   0  0  0  0  0  0  0  0  0  0  0  0
   -1.9206   -0.2786    0.2111 P   0  0  0  0  0  0  0  0  0  0  0  0
   -1.1581    0.9587    1.5197 S   0  0  0  0  0  0  0  0  0  0  0  0
   -1.9563   -1.7488    0.7616 O   0  0  0  0  0  0  0  0  0  0  0  0
   -2.5943   -2.8616    0.0815 C   0  0  0  0  0  0  0  0  0  0  0  0
   -3.9925   -3.0825    0.6205 C   0  0  0  0  0  0  0  0  0  0  0  0
   -3.4369    0.0188   -0.1669 O   0  0  0  0  0  0  0  0  0  0  0  0
   -3.8589    1.3066   -0.6610 C   0  0  0  0  0  0  0  0  0  0  0  0
   -4.5228    2.1049    0.4437 C   0  0  0  0  0  0  0  0  0  0  0  0
    4.2090   -1.5904   -2.7413 H   0  0  0  0  0  0  0  0  0  0  0  0
    5.1464   -2.4573   -1.5165 H   0  0  0  0  0  0  0  0  0  0  0  0
    3.3842   -2.3858   -1.3897 H   0  0  0  0  0  0  0  0  0  0  0  0
    5.3369   -0.0382   -1.1070 H   0  0  0  0  0  0  0  0  0  0  0  0
    4.3772   -0.7732    0.2041 H   0  0  0  0  0  0  0  0  0  0  0  0
    3.0268    2.3062    2.6936 H   0  0  0  0  0  0  0  0  0  0  0  0
    1.3791    2.1217    2.0320 H   0  0  0  0  0  0  0  0  0  0  0  0
    2.9377   -0.0779    3.4853 H   0  0  0  0  0  0  0  0  0  0  0  0
    1.6491    0.9074    4.2040 H   0  0  0  0  0  0  0  0  0  0  0  0
    1.2738   -0.2023    2.8860 H   0  0  0  0  0  0  0  0  0  0  0  0
    0.2424   -2.3928   -1.5971 H   0  0  0  0  0  0  0  0  0  0  0  0
    1.1434   -0.9848   -2.2552 H   0  0  0  0  0  0  0  0  0  0  0  0
   -2.6148   -2.6588   -0.9927 H   0  0  0  0  0  0  0  0  0  0  0  0
   -1.9462   -3.7137    0.2938 H   0  0  0  0  0  0  0  0  0  0  0  0
   -3.9576   -3.2309    1.6961 H   0  0  0  0  0  0  0  0  0  0  0  0
   -4.6184   -2.2204    0.4062 H   0  0  0  0  0  0  0  0  0  0  0  0
   -4.4196   -3.9624    0.1496 H   0  0  0  0  0  0  0  0  0  0  0  0
   -2.9955    1.8438   -1.0654 H   0  0  0  0  0  0  0  0  0  0  0  0
   -4.5573    1.0849   -1.4703 H   0  0  0  0  0  0  0  0  0  0  0  0
   -5.3586    1.5480    0.8575 H   0  0  0  0  0  0  0  0  0  0  0  0
   -3.8078    2.3081    1.2383 H   0  0  0  0  0  0  0  0  0  0  0  0
   -4.8798    3.0465    0.0391 H   0  0  0  0  0  0  0  0  0  0  0  0
  1  2  1  0  0  0  0
  2  3  1  0  0  0  0
  3  4  2  0  0  0  0
  4  5  2  0  0  0  0
  4  6  2  0  0  0  0
  6  7  1  0  0  0  0
  7  8  1  0  0  0  0
  4  9  1  0  0  0  0
  9 10  1  0  0  0  0
 10 11  1  0  0  0  0
 11 12  1  0  0  0  0
 12 13  2  0  0  0  0
 12 14  2  0  0  0  0
 14 15  1  0  0  0  0
 15 16  1  0  0  0  0
 12 17  2  0  0  0  0
 17 18  1  0  0  0  0
 18 19  1  0  0  0  0
  1 20  1  0  0  0  0
  1 21  1  0  0  0  0
  1 22  1  0  0  0  0
  2 23  1  0  0  0  0
  2 24  1  0  0  0  0
  7 25  1  0  0  0  0
  7 26  1  0  0  0  0
  8 27  1  0  0  0  0
  8 28  1  0  0  0  0
  8 29  1  0  0  0  0
 10 30  1  0  0  0  0
 10 31  1  0  0  0  0
 15 32  1  0  0  0  0
 15 33  1  0  0  0  0
 16 34  1  0  0  0  0
 16 35  1  0  0  0  0
 16 36  1  0  0  0  0
 18 37  1  0  0  0  0
 18 38  1  0  0  0  0
 19 39  1  0  0  0  0
 19 40  1  0  0  0  0
 19 41  1  0  0  0  0
M  END
