20
 xtb: 6.7.1 (edcfbbe)
C           -2.92658047461031       -0.37490547975481        0.00144533252081
C           -2.68412774938910        1.01649729465741        0.00241047196290
C           -1.39810922213946        1.50524024219327        0.00070339899326
C           -0.28486309016457        0.62507811336150       -0.00307726775711
C            1.04571197329436        1.09748369091067       -0.00491885307118
C            2.11692773587208        0.21810268614217       -0.01248368082452
C            1.86159027121857       -1.18195956810481       -0.00741497055853
C            0.57867888385708       -1.66252469589832       -0.00111754550664
C           -0.53493153074289       -0.78565584664462       -0.00185857852219
C           -1.86857987304002       -1.25560519119051        0.00023889689499
N            3.42792859076120        0.66414039646426       -0.08507806357626
H           -3.94689264182667       -0.74459786702948        0.00188922703235
H           -3.52335875135262        1.70544432325811        0.00401264602340
H           -1.21719332401979        2.57665461576373        0.00126484855453
H            1.22528988715590        2.16981178984892       -0.00309470448508
H            2.70434115558687       -1.86788813703483       -0.00867216183740
H            0.40105315040165       -2.73445218029933        0.00554050293522
H           -2.04198707387805       -2.32848517425991        0.00037991618986
H            4.11517147351667        0.02195448801214        0.28244111501597
H            3.57451834475643        1.61255019736197        0.22958775377741
