  21
 
 C         -3.0093705770        0.2569040365       -0.0151551922
 C         -1.6397797339       -0.4061144105        0.0659407982
 C         -0.5230824707        0.5856777901       -0.2533744762
 C          0.8935494411        0.0248914675       -0.0393213478
 C          1.9204807046        1.1286674500       -0.3279189011
 C          1.1676936363       -1.1798583764       -0.9474552431
 O          0.9728141028       -0.3617393443        1.3303985096
 H         -3.7930803091       -0.4607321026        0.2144743946
 H         -3.1833426780        0.6492089014       -1.0147786904
 H         -3.0787342830        1.0797863630        0.6927364869
 H         -1.4783441161       -0.7997159497        1.0710133163
 H         -1.6064695211       -1.2410617271       -0.6354891818
 H         -0.6139646651        0.9237827060       -1.2865097571
 H         -0.6350947599        1.4534925281        0.4001971728
 H          2.9327075620        0.7516592040       -0.1965156828
 H          1.7694622090        1.9623034592        0.3540576316
 H          1.8131172987        1.4850797663       -1.3479593674
 H          2.2135510671       -1.4723033381       -0.8804643232
 H          0.9438667474       -0.9291034104       -1.9799229938
 H          0.5541940107       -2.0242843087       -0.6462222792
 H          1.8567010812       -0.7119591969        1.5035377501
          21
        -24.06528418
 C         -2.9987257295        0.2449121843       -0.0552562679
 C         -1.6287885981       -0.4129469798        0.0580105022
 C         -0.5113969913        0.5683767683       -0.2900572574
 C          0.9040776827        0.0294134125       -0.0203710021
 C          1.9323260362        1.1060346843       -0.3950621269
 C          1.1865089445       -1.2479553420       -0.8202694581
 O          0.9720752058       -0.2390113353        1.3778942347
 H         -3.7838824272       -0.4674597963        0.1857618072
 H         -3.1627543909        0.6096393272       -1.0669524092
 H         -3.0763231252        1.0865608825        0.6292743910
 H         -1.4739108900       -0.7695897440        1.0777477718
 H         -1.5899729900       -1.2720209618       -0.6132198151
 H         -0.5847851955        0.8539924415       -1.3403273069
 H         -0.6394162149        1.4671490419        0.3173213641
 H          2.9429671951        0.7511982742       -0.2037647506
 H          1.7620836642        2.0031896734        0.1953789004
 H          1.8464771810        1.3562962463       -1.4482094265
 H          2.2339014827       -1.5276505327       -0.7265540415
 H          0.9632530545       -1.0886393968       -1.8709075083
 H          0.5766185764       -2.0663417701       -0.4478114820
 H          1.8542228984       -0.5723440796        1.5890155207
