41
 xtb: 6.7.1 (edcfbbe)
C            1.99792770147111        0.32624587058968       -3.14361769194971
C            1.44936038306177       -0.72249010200016       -2.20924304841083
O            2.50133005802198       -1.20880099483494       -1.30167991371181
P            2.59378079284416       -0.65478183640067        0.20702682601945
S            3.02275699549775        1.22446224665314        0.47785651667114
O            3.68336973989975       -1.72994483332660        0.69770405244075
C            4.54017445882708       -1.48790221796325        1.86610431578069
C            3.79425308432425       -1.62962500487496        3.17022033298111
S            0.75783779036575       -1.29483328462231        1.08272935946756
C            0.05336468689438        0.26973385271812        1.77112541958797
S           -1.77370601268786        0.22602299862188        1.79693038862496
P           -2.21445499579243        0.71979845535789       -0.22097566938446
S           -1.11740341181769        2.11056995520504       -1.02925689925993
O           -3.79900379107360        0.98806716943938       -0.13300487544762
C           -4.37801720496345        2.33803989385463       -0.04863582581654
C           -4.23250393778056        2.93348216541270        1.32900222566901
O           -2.17608028492722       -0.72880843231739       -0.91368937129633
C           -2.31086304069948       -0.84892948431771       -2.37675909281879
C           -2.18182797413245       -2.31207549537419       -2.70869935170620
H            2.30561399778300        1.22147193601049       -2.59677740104138
H            2.85046945481706       -0.06028686558894       -3.70930171145193
H            1.21238735105259        0.60702144038108       -3.85315718174637
H            1.11905392331274       -1.61379946445792       -2.74788738263512
H            0.61119169998088       -0.33951651170628       -1.61790352919545
H            5.31902723113123       -2.24647589699819        1.76697677788133
H            4.99264182354967       -0.49731397365289        1.75995676866022
H            3.05062102425027       -0.83814417462628        3.30216538093018
H            3.29702494769715       -2.60129613468123        3.23718112158135
H            4.51777325090069       -1.55479527792993        3.98873326651556
H            0.39818871932429        1.12138733306282        1.17721339589025
H            0.36806709622339        0.38822921637889        2.81083850061937
H           -3.90744742726584        2.95940352178827       -0.81607990677693
H           -5.42591413549897        2.17926374898455       -0.31027224661535
H           -4.77756485338793        3.88278974101144        1.35506602200512
H           -4.65662012496837        2.27246485041364        2.09040634242307
H           -3.18583733729840        3.13662028143545        1.57270139947381
H           -3.28745545713838       -0.44638858673687       -2.66487735690035
H           -1.52046161550905       -0.25317962759615       -2.84413985116213
H           -2.25397057179014       -2.43666486597426       -3.79347680202185
H           -1.21372963017148       -2.70102979882989       -2.37952615373997
H           -2.97945760190123       -2.89444760619504       -2.23913669629151
