  20
 
 C         -2.1711139105        0.0267305980        0.0560605865
 C         -0.8573397941        0.5936384453        0.5842557968
 C          0.4241494039       -0.0089895574       -0.0210351102
 C          0.4760729208        0.2233137384       -1.5329485204
 C          0.5117264109       -1.5096419734        0.2671579800
 C          1.6244143461        0.6900054023        0.6280547062
 H         -3.0047375594        0.5176299440        0.5534246171
 H         -2.2708506830        0.1956450627       -1.0126267504
 H         -2.2453138390       -1.0398284233        0.2495696305
 H         -0.8253732797        0.4462505733        1.6668989938
 H         -0.8464275432        1.6714603924        0.4025269523
 H          1.4310845715       -0.1134738449       -1.9302425729
 H          0.3637745747        1.2808138194       -1.7622133685
 H         -0.3116729930       -0.3272375574       -2.0400942127
 H          1.4684604197       -1.9001042371       -0.0727717273
 H          0.4238854647       -1.7007097497        1.3344938744
 H         -0.2752430228       -2.0534375235       -0.2484722583
 H          2.5569181224        0.2948932975        0.2315924894
 H          1.6194252263        0.5383155906        1.7052887163
 H          1.5961235871        1.7598840017        0.4331839573
          20
        -19.99760071
 C         -2.1691742876        0.0068352211       -0.0000307352
 C         -0.8773434111        0.8174926730       -0.0021473862
 C          0.4266920959       -0.0018264876       -0.0000023002
 C          0.5215299435       -0.8751759232        1.2534228624
 C          1.6011308083        0.9837878317       -0.0049261429
 C          0.5196015051       -0.8853631988       -1.2464152530
 H         -3.0219965149        0.6823011166        0.0000545558
 H         -2.2395408456       -0.6229930187       -0.8827080513
 H         -2.2375894033       -0.6210585992        0.8837941834
 H         -0.8737695868        1.4676412254        0.8764662251
 H         -0.8739452770        1.4628579970       -0.8842736889
 H          0.4017042184       -0.2713325243        2.1502891744
 H          1.4926961224       -1.3632892295        1.2965836418
 H         -0.2428273394       -1.6474869786        1.2506002885
 H          2.5481896504        0.4490150138       -0.0027379998
 H          1.5673434203        1.6155475596       -0.8897991837
 H          1.5679423073        1.6238395321        0.8739881053
 H         -0.2452717836       -1.6570526038       -1.2365665107
 H          1.4903946276       -1.3744269390       -1.2865204503
 H          0.3992960100       -0.2887601371       -2.1479910558
