 xtb: 6.7.1 (edcfbbe)
          04092505213D

 41 40  0     0  0            999 V2000
    2.6017   -0.2773   -3.2227 C   0  0  0  0  0  0  0  0  0  0  0  0
    3.6447    0.1755   -2.2207 C   0  0  0  0  0  0  0  0  0  0  0  0
    3.4899   -0.4838   -0.9546 O   0  0  0  0  0  0  0  0  0  0  0  0
    2.2663   -0.1971    0.0217 P   0  0  0  0  0  0  0  0  0  0  0  0
    1.8303    1.7194    0.1391 S   0  0  0  0  0  0  0  0  0  0  0  0
    2.7652   -0.8608    1.3660 O   0  0  0  0  0  0  0  0  0  0  0  0
    3.2288   -0.1262    2.5213 C   0  0  0  0  0  0  0  0  0  0  0  0
    2.3487   -0.4523    3.7117 C   0  0  0  0  0  0  0  0  0  0  0  0
    0.8835   -1.6847   -0.5636 S   0  0  0  0  0  0  0  0  0  0  0  0
   -0.1233   -1.7628    0.9499 C   0  0  0  0  0  0  0  0  0  0  0  0
   -0.7532   -0.1558    1.5051 S   0  0  0  0  0  0  0  0  0  0  0  0
   -1.8359    0.4127   -0.2213 P   0  0  0  0  0  0  0  0  0  0  0  0
   -1.0070    0.9177   -1.9204 S   0  0  0  0  0  0  0  0  0  0  0  0
   -2.6927    1.6395    0.2959 O   0  0  0  0  0  0  0  0  0  0  0  0
   -3.2403    1.8221    1.6226 C   0  0  0  0  0  0  0  0  0  0  0  0
   -4.2837    0.7808    1.9688 C   0  0  0  0  0  0  0  0  0  0  0  0
   -2.7614   -0.8878   -0.3274 O   0  0  0  0  0  0  0  0  0  0  0  0
   -3.3589   -1.3052   -1.5664 C   0  0  0  0  0  0  0  0  0  0  0  0
   -4.5501   -0.4376   -1.9177 C   0  0  0  0  0  0  0  0  0  0  0  0
    1.6095    0.0502   -2.9075 H   0  0  0  0  0  0  0  0  0  0  0  0
    2.8164    0.1601   -4.1924 H   0  0  0  0  0  0  0  0  0  0  0  0
    2.6020   -1.3615   -3.3051 H   0  0  0  0  0  0  0  0  0  0  0  0
    3.5798    1.2570   -2.0604 H   0  0  0  0  0  0  0  0  0  0  0  0
    4.6532   -0.0944   -2.5368 H   0  0  0  0  0  0  0  0  0  0  0  0
    4.2601   -0.4435    2.6834 H   0  0  0  0  0  0  0  0  0  0  0  0
    3.2044    0.9446    2.2944 H   0  0  0  0  0  0  0  0  0  0  0  0
    2.7294    0.0674    4.5848 H   0  0  0  0  0  0  0  0  0  0  0  0
    1.3269   -0.1281    3.5224 H   0  0  0  0  0  0  0  0  0  0  0  0
    2.3552   -1.5219    3.9010 H   0  0  0  0  0  0  0  0  0  0  0  0
    0.4801   -2.1472    1.7695 H   0  0  0  0  0  0  0  0  0  0  0  0
   -0.9556   -2.4260    0.7261 H   0  0  0  0  0  0  0  0  0  0  0  0
   -2.4161    1.8081    2.3405 H   0  0  0  0  0  0  0  0  0  0  0  0
   -3.6695    2.8247    1.5788 H   0  0  0  0  0  0  0  0  0  0  0  0
   -3.8349   -0.2095    1.9973 H   0  0  0  0  0  0  0  0  0  0  0  0
   -4.6986    1.0103    2.9453 H   0  0  0  0  0  0  0  0  0  0  0  0
   -5.0815    0.7893    1.2307 H   0  0  0  0  0  0  0  0  0  0  0  0
   -2.6011   -1.2560   -2.3550 H   0  0  0  0  0  0  0  0  0  0  0  0
   -3.6482   -2.3421   -1.3908 H   0  0  0  0  0  0  0  0  0  0  0  0
   -4.2240    0.5953   -2.0398 H   0  0  0  0  0  0  0  0  0  0  0  0
   -4.9866   -0.7824   -2.8496 H   0  0  0  0  0  0  0  0  0  0  0  0
   -5.2980   -0.4828   -1.1307 H   0  0  0  0  0  0  0  0  0  0  0  0
  1  2  1  0  0  0  0
  2  3  1  0  0  0  0
  3  4  2  0  0  0  0
  4  5  2  0  0  0  0
  4  6  2  0  0  0  0
  6  7  1  0  0  0  0
  7  8  1  0  0  0  0
  4  9  1  0  0  0  0
  9 10  1  0  0  0  0
 10 11  1  0  0  0  0
 11 12  1  0  0  0  0
 12 13  2  0  0  0  0
 12 14  2  0  0  0  0
 14 15  1  0  0  0  0
 15 16  1  0  0  0  0
 12 17  1  0  0  0  0
 17 18  1  0  0  0  0
 18 19  1  0  0  0  0
  1 20  1  0  0  0  0
  1 21  1  0  0  0  0
  1 22  1  0  0  0  0
  2 23  1  0  0  0  0
  2 24  1  0  0  0  0
  7 25  1  0  0  0  0
  7 26  1  0  0  0  0
  8 27  1  0  0  0  0
  8 28  1  0  0  0  0
  8 29  1  0  0  0  0
 10 30  1  0  0  0  0
 10 31  1  0  0  0  0
 15 32  1  0  0  0  0
 15 33  1  0  0  0  0
 16 34  1  0  0  0  0
 16 35  1  0  0  0  0
 16 36  1  0  0  0  0
 18 37  1  0  0  0  0
 18 38  1  0  0  0  0
 19 39  1  0  0  0  0
 19 40  1  0  0  0  0
 19 41  1  0  0  0  0
M  END
