 xtb: 6.7.1 (edcfbbe)
          04092505203D

 41 40  0     0  0            999 V2000
    2.9925    0.2139    3.3198 C   0  0  0  0  0  0  0  0  0  0  0  0
    1.6572   -0.2453    2.7738 C   0  0  0  0  0  0  0  0  0  0  0  0
    1.4004    0.2970    1.4613 O   0  0  0  0  0  0  0  0  0  0  0  0
    2.2437   -0.1396    0.1939 P   0  0  0  0  0  0  0  0  0  0  0  0
    2.9011   -1.9904    0.1933 S   0  0  0  0  0  0  0  0  0  0  0  0
    3.3636    0.9859    0.1460 O   0  0  0  0  0  0  0  0  0  0  0  0
    4.5581    0.8535   -0.6430 C   0  0  0  0  0  0  0  0  0  0  0  0
    4.2685    0.9031   -2.1294 C   0  0  0  0  0  0  0  0  0  0  0  0
    0.8948    0.3934   -1.3458 S   0  0  0  0  0  0  0  0  0  0  0  0
   -0.0585   -1.1475   -1.2978 C   0  0  0  0  0  0  0  0  0  0  0  0
   -1.1250   -1.2768    0.1569 S   0  0  0  0  0  0  0  0  0  0  0  0
   -2.4998    0.2420   -0.4495 P   0  0  0  0  0  0  0  0  0  0  0  0
   -2.9093    0.3047   -2.3583 S   0  0  0  0  0  0  0  0  0  0  0  0
   -1.8918    1.6003    0.0703 O   0  0  0  0  0  0  0  0  0  0  0  0
   -1.6406    1.8689    1.4728 C   0  0  0  0  0  0  0  0  0  0  0  0
   -0.6221    2.9864    1.5541 C   0  0  0  0  0  0  0  0  0  0  0  0
   -3.7352    0.0433    0.5326 O   0  0  0  0  0  0  0  0  0  0  0  0
   -4.8345   -0.8379    0.2336 C   0  0  0  0  0  0  0  0  0  0  0  0
   -4.4139   -2.2923    0.1894 C   0  0  0  0  0  0  0  0  0  0  0  0
    3.1012   -0.1318    4.3430 H   0  0  0  0  0  0  0  0  0  0  0  0
    3.8004   -0.2021    2.7190 H   0  0  0  0  0  0  0  0  0  0  0  0
    3.0576    1.2984    3.2935 H   0  0  0  0  0  0  0  0  0  0  0  0
    0.8260    0.1208    3.3777 H   0  0  0  0  0  0  0  0  0  0  0  0
    1.6172   -1.3374    2.7104 H   0  0  0  0  0  0  0  0  0  0  0  0
    5.1773    1.6933   -0.3248 H   0  0  0  0  0  0  0  0  0  0  0  0
    5.0445   -0.0911   -0.3788 H   0  0  0  0  0  0  0  0  0  0  0  0
    3.6984    0.0241   -2.4282 H   0  0  0  0  0  0  0  0  0  0  0  0
    3.6910    1.7914   -2.3732 H   0  0  0  0  0  0  0  0  0  0  0  0
    5.2043    0.9186   -2.6788 H   0  0  0  0  0  0  0  0  0  0  0  0
    0.6244   -1.9969   -1.2672 H   0  0  0  0  0  0  0  0  0  0  0  0
   -0.6748   -1.1617   -2.1969 H   0  0  0  0  0  0  0  0  0  0  0  0
   -2.5906    2.1516    1.9303 H   0  0  0  0  0  0  0  0  0  0  0  0
   -1.2718    0.9518    1.9420 H   0  0  0  0  0  0  0  0  0  0  0  0
   -0.9822    3.8548    1.0099 H   0  0  0  0  0  0  0  0  0  0  0  0
   -0.4646    3.2512    2.5947 H   0  0  0  0  0  0  0  0  0  0  0  0
    0.3209    2.6669    1.1173 H   0  0  0  0  0  0  0  0  0  0  0  0
   -5.5435   -0.6473    1.0406 H   0  0  0  0  0  0  0  0  0  0  0  0
   -5.2674   -0.5337   -0.7240 H   0  0  0  0  0  0  0  0  0  0  0  0
   -5.2962   -2.9164    0.0908 H   0  0  0  0  0  0  0  0  0  0  0  0
   -3.7629   -2.4664   -0.6660 H   0  0  0  0  0  0  0  0  0  0  0  0
   -3.8798   -2.5616    1.0973 H   0  0  0  0  0  0  0  0  0  0  0  0
  1  2  1  0  0  0  0
  2  3  1  0  0  0  0
  3  4  2  0  0  0  0
  4  5  2  0  0  0  0
  4  6  2  0  0  0  0
  6  7  1  0  0  0  0
  7  8  1  0  0  0  0
  4  9  1  0  0  0  0
  9 10  1  0  0  0  0
 10 11  1  0  0  0  0
 11 12  1  0  0  0  0
 12 13  2  0  0  0  0
 12 14  2  0  0  0  0
 14 15  1  0  0  0  0
 15 16  1  0  0  0  0
 12 17  2  0  0  0  0
 17 18  1  0  0  0  0
 18 19  1  0  0  0  0
  1 20  1  0  0  0  0
  1 21  1  0  0  0  0
  1 22  1  0  0  0  0
  2 23  1  0  0  0  0
  2 24  1  0  0  0  0
  7 25  1  0  0  0  0
  7 26  1  0  0  0  0
  8 27  1  0  0  0  0
  8 28  1  0  0  0  0
  8 29  1  0  0  0  0
 10 30  1  0  0  0  0
 10 31  1  0  0  0  0
 15 32  1  0  0  0  0
 15 33  1  0  0  0  0
 16 34  1  0  0  0  0
 16 35  1  0  0  0  0
 16 36  1  0  0  0  0
 18 37  1  0  0  0  0
 18 38  1  0  0  0  0
 19 39  1  0  0  0  0
 19 40  1  0  0  0  0
 19 41  1  0  0  0  0
M  END
