 xtb: 6.7.1 (edcfbbe)
          04092509473D

 38 37  0     0  0            999 V2000
    4.6209   -3.9845   -1.8535 C   0  0  0  0  0  0  0  0  0  0  0  0
    4.0706   -2.9488   -0.8920 C   0  0  0  0  0  0  0  0  0  0  0  0
    3.1336   -2.1236   -1.6148 O   0  0  0  0  0  0  0  0  0  0  0  0
    2.4199   -1.2473   -0.9450 C   0  0  0  0  0  0  0  0  0  0  0  0
    2.4752   -1.0891    0.2580 O   0  0  0  0  0  0  0  0  0  0  0  0
    1.5271   -0.4359   -1.8606 C   0  0  0  0  0  0  0  0  0  0  0  0
    0.4569    0.2874   -1.0534 C   0  0  0  0  0  0  0  0  0  0  0  0
   -0.0971    0.9845   -1.6930 H   0  0  0  0  0  0  0  0  0  0  0  0
    1.1060    1.1123    0.0460 C   0  0  0  0  0  0  0  0  0  0  0  0
    2.0493    1.8361   -0.1818 O   0  0  0  0  0  0  0  0  0  0  0  0
    0.5057    0.9979    1.2121 O   0  0  0  0  0  0  0  0  0  0  0  0
    1.0303    1.7714    2.3118 C   0  0  0  0  0  0  0  0  0  0  0  0
    0.3905    3.1483    2.3634 C   0  0  0  0  0  0  0  0  0  0  0  0
   -0.7470   -0.9162   -0.4010 S   0  0  0  0  0  0  0  0  0  0  0  0
   -2.2448    0.4446    0.2471 P   0  0  0  0  0  0  0  0  0  0  0  0
   -2.2609    2.2001   -0.6149 S   0  0  0  0  0  0  0  0  0  0  0  0
   -3.5838   -0.4153    0.0535 O   0  0  0  0  0  0  0  0  0  0  0  0
   -4.1364   -0.6900   -1.2395 C   0  0  0  0  0  0  0  0  0  0  0  0
   -2.2080    0.5403    1.8230 O   0  0  0  0  0  0  0  0  0  0  0  0
   -2.1078   -0.6299    2.6560 C   0  0  0  0  0  0  0  0  0  0  0  0
    5.3563   -4.5950   -1.3400 H   0  0  0  0  0  0  0  0  0  0  0  0
    3.8202   -4.6200   -2.2191 H   0  0  0  0  0  0  0  0  0  0  0  0
    5.0920   -3.4926   -2.6991 H   0  0  0  0  0  0  0  0  0  0  0  0
    4.8607   -2.3018   -0.4985 H   0  0  0  0  0  0  0  0  0  0  0  0
    3.5485   -3.4093   -0.0479 H   0  0  0  0  0  0  0  0  0  0  0  0
    1.0863   -1.0858   -2.6150 H   0  0  0  0  0  0  0  0  0  0  0  0
    2.1586    0.3064   -2.3552 H   0  0  0  0  0  0  0  0  0  0  0  0
    0.7937    1.1859    3.2003 H   0  0  0  0  0  0  0  0  0  0  0  0
    2.1140    1.8468    2.1833 H   0  0  0  0  0  0  0  0  0  0  0  0
    0.7689    3.6886    3.2249 H   0  0  0  0  0  0  0  0  0  0  0  0
    0.6292    3.7073    1.4609 H   0  0  0  0  0  0  0  0  0  0  0  0
   -0.6906    3.0564    2.4393 H   0  0  0  0  0  0  0  0  0  0  0  0
   -5.1009   -1.1557   -1.0505 H   0  0  0  0  0  0  0  0  0  0  0  0
   -3.4848   -1.3682   -1.7897 H   0  0  0  0  0  0  0  0  0  0  0  0
   -4.2658    0.2387   -1.7969 H   0  0  0  0  0  0  0  0  0  0  0  0
   -1.1628   -1.1375    2.4612 H   0  0  0  0  0  0  0  0  0  0  0  0
   -2.9414   -1.3020    2.4614 H   0  0  0  0  0  0  0  0  0  0  0  0
   -2.1415   -0.2576    3.6763 H   0  0  0  0  0  0  0  0  0  0  0  0
  1  2  1  0  0  0  0
  2  3  1  0  0  0  0
  3  4  4  0  0  0  0
  4  5  2  0  0  0  0
  4  6  1  0  0  0  0
  6  7  1  0  0  0  0
  7  8  1  0  0  0  0
  7  9  1  0  0  0  0
  9 10  2  0  0  0  0
  9 11  1  0  0  0  0
 11 12  1  0  0  0  0
 12 13  1  0  0  0  0
  7 14  1  0  0  0  0
 14 15  1  0  0  0  0
 15 16  2  0  0  0  0
 15 17  1  0  0  0  0
 17 18  1  0  0  0  0
 15 19  2  0  0  0  0
 19 20  1  0  0  0  0
  1 21  1  0  0  0  0
  1 22  1  0  0  0  0
  1 23  1  0  0  0  0
  2 24  1  0  0  0  0
  2 25  1  0  0  0  0
  6 26  1  0  0  0  0
  6 27  1  0  0  0  0
 12 28  1  0  0  0  0
 12 29  1  0  0  0  0
 13 30  1  0  0  0  0
 13 31  1  0  0  0  0
 13 32  1  0  0  0  0
 18 33  1  0  0  0  0
 18 34  1  0  0  0  0
 18 35  1  0  0  0  0
 20 36  1  0  0  0  0
 20 37  1  0  0  0  0
 20 38  1  0  0  0  0
M  END
