 xtb: 6.7.1 (edcfbbe)
          04092505203D

 41 40  0     0  0            999 V2000
    2.7065    2.0161   -1.7151 C   0  0  0  0  0  0  0  0  0  0  0  0
    3.3417    2.0117   -0.3389 C   0  0  0  0  0  0  0  0  0  0  0  0
    3.3485    0.6968    0.2422 O   0  0  0  0  0  0  0  0  0  0  0  0
    2.0607    0.0665    0.9301 P   0  0  0  0  0  0  0  0  0  0  0  0
    1.0623    1.2963    2.0709 S   0  0  0  0  0  0  0  0  0  0  0  0
    2.6351   -1.1521    1.7498 O   0  0  0  0  0  0  0  0  0  0  0  0
    3.5416   -2.1447    1.2046 C   0  0  0  0  0  0  0  0  0  0  0  0
    4.9826   -1.7686    1.4807 C   0  0  0  0  0  0  0  0  0  0  0  0
    1.0554   -0.8515   -0.7244 S   0  0  0  0  0  0  0  0  0  0  0  0
   -0.1276   -1.8546    0.2112 C   0  0  0  0  0  0  0  0  0  0  0  0
   -1.4911   -0.9047    0.9418 S   0  0  0  0  0  0  0  0  0  0  0  0
   -2.1978   -0.0518   -0.8842 P   0  0  0  0  0  0  0  0  0  0  0  0
   -1.9932   -1.1497   -2.4868 S   0  0  0  0  0  0  0  0  0  0  0  0
   -1.4733    1.3458   -1.0027 O   0  0  0  0  0  0  0  0  0  0  0  0
   -1.7144    2.4297   -0.0661 C   0  0  0  0  0  0  0  0  0  0  0  0
   -0.7887    3.5693   -0.4320 C   0  0  0  0  0  0  0  0  0  0  0  0
   -3.6862    0.3877   -0.5352 O   0  0  0  0  0  0  0  0  0  0  0  0
   -4.8141   -0.4905   -0.7074 C   0  0  0  0  0  0  0  0  0  0  0  0
   -4.7742   -1.6745    0.2364 C   0  0  0  0  0  0  0  0  0  0  0  0
    2.8001    3.0061   -2.1500 H   0  0  0  0  0  0  0  0  0  0  0  0
    3.1985    1.2921   -2.3592 H   0  0  0  0  0  0  0  0  0  0  0  0
    1.6502    1.7575   -1.6520 H   0  0  0  0  0  0  0  0  0  0  0  0
    2.8159    2.6892    0.3426 H   0  0  0  0  0  0  0  0  0  0  0  0
    4.3963    2.2873   -0.3878 H   0  0  0  0  0  0  0  0  0  0  0  0
    3.2701   -3.0695    1.7174 H   0  0  0  0  0  0  0  0  0  0  0  0
    3.3570   -2.2441    0.1315 H   0  0  0  0  0  0  0  0  0  0  0  0
    5.2424   -0.8543    0.9548 H   0  0  0  0  0  0  0  0  0  0  0  0
    5.1290   -1.6146    2.5463 H   0  0  0  0  0  0  0  0  0  0  0  0
    5.6288   -2.5727    1.1425 H   0  0  0  0  0  0  0  0  0  0  0  0
    0.3715   -2.3576    1.0365 H   0  0  0  0  0  0  0  0  0  0  0  0
   -0.5330   -2.5685   -0.5051 H   0  0  0  0  0  0  0  0  0  0  0  0
   -2.7635    2.7184   -0.1484 H   0  0  0  0  0  0  0  0  0  0  0  0
   -1.5143    2.0672    0.9469 H   0  0  0  0  0  0  0  0  0  0  0  0
   -0.9069    3.8241   -1.4813 H   0  0  0  0  0  0  0  0  0  0  0  0
   -1.0317    4.4299    0.1823 H   0  0  0  0  0  0  0  0  0  0  0  0
    0.2434    3.2862   -0.2462 H   0  0  0  0  0  0  0  0  0  0  0  0
   -5.6731    0.1526   -0.5109 H   0  0  0  0  0  0  0  0  0  0  0  0
   -4.8300   -0.8283   -1.7481 H   0  0  0  0  0  0  0  0  0  0  0  0
   -5.7078   -2.2226    0.1616 H   0  0  0  0  0  0  0  0  0  0  0  0
   -3.9536   -2.3378   -0.0326 H   0  0  0  0  0  0  0  0  0  0  0  0
   -4.6329   -1.3384    1.2608 H   0  0  0  0  0  0  0  0  0  0  0  0
  1  2  1  0  0  0  0
  2  3  1  0  0  0  0
  3  4  2  0  0  0  0
  4  5  2  0  0  0  0
  4  6  2  0  0  0  0
  6  7  1  0  0  0  0
  7  8  1  0  0  0  0
  4  9  1  0  0  0  0
  9 10  1  0  0  0  0
 10 11  1  0  0  0  0
 11 12  1  0  0  0  0
 12 13  2  0  0  0  0
 12 14  2  0  0  0  0
 14 15  1  0  0  0  0
 15 16  1  0  0  0  0
 12 17  2  0  0  0  0
 17 18  1  0  0  0  0
 18 19  1  0  0  0  0
  1 20  1  0  0  0  0
  1 21  1  0  0  0  0
  1 22  1  0  0  0  0
  2 23  1  0  0  0  0
  2 24  1  0  0  0  0
  7 25  1  0  0  0  0
  7 26  1  0  0  0  0
  8 27  1  0  0  0  0
  8 28  1  0  0  0  0
  8 29  1  0  0  0  0
 10 30  1  0  0  0  0
 10 31  1  0  0  0  0
 15 32  1  0  0  0  0
 15 33  1  0  0  0  0
 16 34  1  0  0  0  0
 16 35  1  0  0  0  0
 16 36  1  0  0  0  0
 18 37  1  0  0  0  0
 18 38  1  0  0  0  0
 19 39  1  0  0  0  0
 19 40  1  0  0  0  0
 19 41  1  0  0  0  0
M  END
