  20
 
 C         -2.7333648970       -0.2701402680       -0.0111524127
 C         -2.3571655117        1.0795259858        0.0226508055
 C         -1.0340621033        1.4276444050        0.0379546269
 C         -0.0182379027        0.4500726871        0.0191551750
 C         -0.4015449092       -0.9183884152       -0.0057082386
 C         -1.7751538993       -1.2432977283       -0.0228136863
 C          0.5839153034       -1.9258700982       -0.0079359906
 C          1.9095141805       -1.5886594236        0.0144090670
 C          2.3021429693       -0.2501940430        0.0269114906
 C          1.3739421262        0.7752466883        0.0252063174
 N          1.7985396981        2.0789313031        0.0951006289
 H         -3.7812231493       -0.5319369666       -0.0243477349
 H         -3.1200379355        1.8438249236        0.0385997426
 H         -0.7738475726        2.4744461958        0.0780352537
 H         -2.0532551357       -2.2876424787       -0.0433842525
 H          0.2739613591       -2.9602832692       -0.0252875704
 H          2.6683447531       -2.3578830444        0.0147959321
 H          3.3551349648       -0.0071892280        0.0371812758
 H          1.1719461813        2.7928563311       -0.2326098893
 H          2.7697984101        2.2339038528       -0.1172752959
          20
        -28.91583742
 C         -2.7343705846       -0.2589643278       -0.0037860346
 C         -2.3498485298        1.0886620172        0.0093035610
 C         -1.0244526497        1.4286868723        0.0097581737
 C         -0.0147259569        0.4449029149       -0.0033987198
 C         -0.4064887346       -0.9215956205       -0.0056594246
 C         -1.7819605771       -1.2380415575       -0.0089472135
 C          0.5732067896       -1.9345426676        0.0007273725
 C          1.9009305030       -1.6049883935        0.0103268164
 C          2.3017321357       -0.2689864866       -0.0000875014
 C          1.3795054490        0.7617937481       -0.0121145694
 N          1.8114495846        2.0641779613        0.0345398918
 H         -3.7837585564       -0.5149176476       -0.0057875501
 H         -3.1076710989        1.8579538746        0.0213824802
 H         -0.7573738892        2.4743096892        0.0342554339
 H         -2.0669321633       -2.2808546712       -0.0130239441
 H          0.2574442759       -2.9674587983        0.0006431481
 H          2.6547997018       -2.3790503704        0.0178168435
 H          3.3560824606       -0.0318974633        0.0001029182
 H          2.7834369800        2.2093182903       -0.1826525859
 H          1.1887824504        2.7756612601       -0.3065265778
