 xtb: 6.7.1 (edcfbbe)
          04092505213D

 41 40  0     0  0            999 V2000
    5.5784   -0.7215   -0.9222 C   0  0  0  0  0  0  0  0  0  0  0  0
    4.2938   -1.4803   -1.1836 C   0  0  0  0  0  0  0  0  0  0  0  0
    3.2483   -0.5885   -1.6460 O   0  0  0  0  0  0  0  0  0  0  0  0
    2.1758    0.0789   -0.7037 P   0  0  0  0  0  0  0  0  0  0  0  0
    0.9801    1.2051   -1.7653 S   0  0  0  0  0  0  0  0  0  0  0  0
    3.0734    0.7876    0.3925 O   0  0  0  0  0  0  0  0  0  0  0  0
    2.5744    1.6938    1.3937 C   0  0  0  0  0  0  0  0  0  0  0  0
    3.7573    2.4612    1.9467 C   0  0  0  0  0  0  0  0  0  0  0  0
    1.2849   -1.5570    0.3363 S   0  0  0  0  0  0  0  0  0  0  0  0
   -0.0901   -1.8653   -0.8184 C   0  0  0  0  0  0  0  0  0  0  0  0
   -1.7018   -1.9693   -0.0036 S   0  0  0  0  0  0  0  0  0  0  0  0
   -2.0465    0.0959    0.4115 P   0  0  0  0  0  0  0  0  0  0  0  0
   -0.7568    1.0179    1.5541 S   0  0  0  0  0  0  0  0  0  0  0  0
   -3.5207    0.0406    0.9970 O   0  0  0  0  0  0  0  0  0  0  0  0
   -3.7799   -0.4631    2.3245 C   0  0  0  0  0  0  0  0  0  0  0  0
   -5.1459    0.0332    2.7526 C   0  0  0  0  0  0  0  0  0  0  0  0
   -2.2245    0.8022   -0.9795 O   0  0  0  0  0  0  0  0  0  0  0  0
   -3.1859    0.3922   -1.9846 C   0  0  0  0  0  0  0  0  0  0  0  0
   -4.4599    1.2024   -1.8673 C   0  0  0  0  0  0  0  0  0  0  0  0
    6.3585   -1.4276   -0.6552 H   0  0  0  0  0  0  0  0  0  0  0  0
    5.8763   -0.1769   -1.8140 H   0  0  0  0  0  0  0  0  0  0  0  0
    5.4410   -0.0137   -0.1094 H   0  0  0  0  0  0  0  0  0  0  0  0
    3.9457   -1.9960   -0.2840 H   0  0  0  0  0  0  0  0  0  0  0  0
    4.4141   -2.1960   -1.9987 H   0  0  0  0  0  0  0  0  0  0  0  0
    1.8381    2.3602    0.9334 H   0  0  0  0  0  0  0  0  0  0  0  0
    2.0704    1.1128    2.1705 H   0  0  0  0  0  0  0  0  0  0  0  0
    3.4044    3.1503    2.7066 H   0  0  0  0  0  0  0  0  0  0  0  0
    4.4723    1.7736    2.3890 H   0  0  0  0  0  0  0  0  0  0  0  0
    4.2441    3.0203    1.1524 H   0  0  0  0  0  0  0  0  0  0  0  0
    0.0634   -2.8329   -1.2886 H   0  0  0  0  0  0  0  0  0  0  0  0
   -0.1030   -1.0563   -1.5541 H   0  0  0  0  0  0  0  0  0  0  0  0
   -3.7435   -1.5547    2.2846 H   0  0  0  0  0  0  0  0  0  0  0  0
   -2.9926   -0.1009    2.9937 H   0  0  0  0  0  0  0  0  0  0  0  0
   -5.9055   -0.3247    2.0638 H   0  0  0  0  0  0  0  0  0  0  0  0
   -5.3614   -0.3377    3.7492 H   0  0  0  0  0  0  0  0  0  0  0  0
   -5.1615    1.1196    2.7639 H   0  0  0  0  0  0  0  0  0  0  0  0
   -2.6770    0.5804   -2.9323 H   0  0  0  0  0  0  0  0  0  0  0  0
   -3.3844   -0.6773   -1.8713 H   0  0  0  0  0  0  0  0  0  0  0  0
   -4.2331    2.2627   -1.9389 H   0  0  0  0  0  0  0  0  0  0  0  0
   -5.1319    0.9235   -2.6729 H   0  0  0  0  0  0  0  0  0  0  0  0
   -4.9414    1.0099   -0.9123 H   0  0  0  0  0  0  0  0  0  0  0  0
  1  2  1  0  0  0  0
  2  3  1  0  0  0  0
  3  4  2  0  0  0  0
  4  5  2  0  0  0  0
  4  6  2  0  0  0  0
  6  7  1  0  0  0  0
  7  8  1  0  0  0  0
  4  9  1  0  0  0  0
  9 10  1  0  0  0  0
 10 11  1  0  0  0  0
 11 12  1  0  0  0  0
 12 13  2  0  0  0  0
 12 14  2  0  0  0  0
 14 15  1  0  0  0  0
 15 16  1  0  0  0  0
 12 17  2  0  0  0  0
 17 18  1  0  0  0  0
 18 19  1  0  0  0  0
  1 20  1  0  0  0  0
  1 21  1  0  0  0  0
  1 22  1  0  0  0  0
  2 23  1  0  0  0  0
  2 24  1  0  0  0  0
  7 25  1  0  0  0  0
  7 26  1  0  0  0  0
  8 27  1  0  0  0  0
  8 28  1  0  0  0  0
  8 29  1  0  0  0  0
 10 30  1  0  0  0  0
 10 31  1  0  0  0  0
 15 32  1  0  0  0  0
 15 33  1  0  0  0  0
 16 34  1  0  0  0  0
 16 35  1  0  0  0  0
 16 36  1  0  0  0  0
 18 37  1  0  0  0  0
 18 38  1  0  0  0  0
 19 39  1  0  0  0  0
 19 40  1  0  0  0  0
 19 41  1  0  0  0  0
M  END
