 xtb: 6.7.1 (edcfbbe)
          04092505203D

 41 40  0     0  0            999 V2000
    2.4280   -1.7409   -2.8399 C   0  0  0  0  0  0  0  0  0  0  0  0
    3.4480   -0.9060   -2.0927 C   0  0  0  0  0  0  0  0  0  0  0  0
    3.2603   -0.9835   -0.6706 O   0  0  0  0  0  0  0  0  0  0  0  0
    1.9636   -0.4074    0.0510 P   0  0  0  0  0  0  0  0  0  0  0  0
    1.4017    1.3215   -0.7176 S   0  0  0  0  0  0  0  0  0  0  0  0
    2.4028   -0.3856    1.5724 O   0  0  0  0  0  0  0  0  0  0  0  0
    2.9472    0.7865    2.2091 C   0  0  0  0  0  0  0  0  0  0  0  0
    4.3402    1.0985    1.7043 C   0  0  0  0  0  0  0  0  0  0  0  0
    0.7367   -2.1207    0.1035 S   0  0  0  0  0  0  0  0  0  0  0  0
   -0.4665   -1.7028    1.4171 C   0  0  0  0  0  0  0  0  0  0  0  0
   -0.7210    0.0697    1.6870 S   0  0  0  0  0  0  0  0  0  0  0  0
   -1.9575    0.5365    0.0412 P   0  0  0  0  0  0  0  0  0  0  0  0
   -2.3111    2.4416   -0.2406 S   0  0  0  0  0  0  0  0  0  0  0  0
   -3.2863   -0.3316    0.2434 O   0  0  0  0  0  0  0  0  0  0  0  0
   -4.4415    0.1902    0.9165 C   0  0  0  0  0  0  0  0  0  0  0  0
   -4.2160    0.3091    2.4103 C   0  0  0  0  0  0  0  0  0  0  0  0
   -1.2428   -0.3212   -1.0818 O   0  0  0  0  0  0  0  0  0  0  0  0
   -1.8071   -0.5485   -2.3930 C   0  0  0  0  0  0  0  0  0  0  0  0
   -1.4814    0.5894   -3.3390 C   0  0  0  0  0  0  0  0  0  0  0  0
    2.4460   -2.7681   -2.4843 H   0  0  0  0  0  0  0  0  0  0  0  0
    1.4318   -1.3305   -2.6727 H   0  0  0  0  0  0  0  0  0  0  0  0
    2.6464   -1.7180   -3.9027 H   0  0  0  0  0  0  0  0  0  0  0  0
    3.3784    0.1448   -2.3936 H   0  0  0  0  0  0  0  0  0  0  0  0
    4.4643   -1.2709   -2.2457 H   0  0  0  0  0  0  0  0  0  0  0  0
    2.2692    1.6277    2.0287 H   0  0  0  0  0  0  0  0  0  0  0  0
    2.9442    0.5330    3.2699 H   0  0  0  0  0  0  0  0  0  0  0  0
    4.7532    1.9261    2.2724 H   0  0  0  0  0  0  0  0  0  0  0  0
    4.9807    0.2270    1.8103 H   0  0  0  0  0  0  0  0  0  0  0  0
    4.2966    1.3779    0.6522 H   0  0  0  0  0  0  0  0  0  0  0  0
   -0.0924   -2.0896    2.3622 H   0  0  0  0  0  0  0  0  0  0  0  0
   -1.4078   -2.1724    1.1386 H   0  0  0  0  0  0  0  0  0  0  0  0
   -4.6790    1.1686    0.4865 H   0  0  0  0  0  0  0  0  0  0  0  0
   -5.2318   -0.5241    0.6814 H   0  0  0  0  0  0  0  0  0  0  0  0
   -3.9155   -0.6476    2.8293 H   0  0  0  0  0  0  0  0  0  0  0  0
   -3.4335    1.0417    2.6072 H   0  0  0  0  0  0  0  0  0  0  0  0
   -5.1337    0.6388    2.8865 H   0  0  0  0  0  0  0  0  0  0  0  0
   -1.3415   -1.4831   -2.7142 H   0  0  0  0  0  0  0  0  0  0  0  0
   -2.8861   -0.6880   -2.2945 H   0  0  0  0  0  0  0  0  0  0  0  0
   -0.4096    0.7752   -3.3461 H   0  0  0  0  0  0  0  0  0  0  0  0
   -1.8103    0.3317   -4.3405 H   0  0  0  0  0  0  0  0  0  0  0  0
   -1.9799    1.5031   -3.0210 H   0  0  0  0  0  0  0  0  0  0  0  0
  1  2  1  0  0  0  0
  2  3  1  0  0  0  0
  3  4  2  0  0  0  0
  4  5  2  0  0  0  0
  4  6  2  0  0  0  0
  6  7  1  0  0  0  0
  7  8  1  0  0  0  0
  4  9  1  0  0  0  0
  9 10  1  0  0  0  0
 10 11  1  0  0  0  0
 11 12  1  0  0  0  0
 12 13  2  0  0  0  0
 12 14  2  0  0  0  0
 14 15  1  0  0  0  0
 15 16  1  0  0  0  0
 12 17  2  0  0  0  0
 17 18  1  0  0  0  0
 18 19  1  0  0  0  0
  1 20  1  0  0  0  0
  1 21  1  0  0  0  0
  1 22  1  0  0  0  0
  2 23  1  0  0  0  0
  2 24  1  0  0  0  0
  7 25  1  0  0  0  0
  7 26  1  0  0  0  0
  8 27  1  0  0  0  0
  8 28  1  0  0  0  0
  8 29  1  0  0  0  0
 10 30  1  0  0  0  0
 10 31  1  0  0  0  0
 15 32  1  0  0  0  0
 15 33  1  0  0  0  0
 16 34  1  0  0  0  0
 16 35  1  0  0  0  0
 16 36  1  0  0  0  0
 18 37  1  0  0  0  0
 18 38  1  0  0  0  0
 19 39  1  0  0  0  0
 19 40  1  0  0  0  0
 19 41  1  0  0  0  0
M  END
