 xtb: 6.7.1 (edcfbbe)
          04092505203D

 41 40  0     0  0            999 V2000
    4.6148    1.0856   -1.3991 C   0  0  0  0  0  0  0  0  0  0  0  0
    4.7503   -0.1581   -0.5452 C   0  0  0  0  0  0  0  0  0  0  0  0
    3.4992   -0.8509   -0.3774 O   0  0  0  0  0  0  0  0  0  0  0  0
    2.2793   -0.2250    0.4260 P   0  0  0  0  0  0  0  0  0  0  0  0
    2.7442    0.7743    2.0379 S   0  0  0  0  0  0  0  0  0  0  0  0
    1.3896   -1.4909    0.7395 O   0  0  0  0  0  0  0  0  0  0  0  0
    1.1085   -2.5249   -0.2359 C   0  0  0  0  0  0  0  0  0  0  0  0
    2.0485   -3.6979   -0.0574 C   0  0  0  0  0  0  0  0  0  0  0  0
    1.2043    0.8588   -1.0710 S   0  0  0  0  0  0  0  0  0  0  0  0
    0.3032    1.9398    0.0678 C   0  0  0  0  0  0  0  0  0  0  0  0
   -0.7969    1.0555    1.2092 S   0  0  0  0  0  0  0  0  0  0  0  0
   -2.2492    0.3611   -0.1669 P   0  0  0  0  0  0  0  0  0  0  0  0
   -1.8160   -1.0300   -1.4835 S   0  0  0  0  0  0  0  0  0  0  0  0
   -2.6905    1.7570   -0.7690 O   0  0  0  0  0  0  0  0  0  0  0  0
   -3.4082    1.8570   -2.0184 C   0  0  0  0  0  0  0  0  0  0  0  0
   -4.8224    1.3312   -1.8956 C   0  0  0  0  0  0  0  0  0  0  0  0
   -3.4655   -0.0231    0.7830 O   0  0  0  0  0  0  0  0  0  0  0  0
   -3.6311   -1.3516    1.3037 C   0  0  0  0  0  0  0  0  0  0  0  0
   -2.5946   -1.6739    2.3614 C   0  0  0  0  0  0  0  0  0  0  0  0
    4.1161    0.8504   -2.3362 H   0  0  0  0  0  0  0  0  0  0  0  0
    4.0336    1.8395   -0.8706 H   0  0  0  0  0  0  0  0  0  0  0  0
    5.6023    1.4854   -1.6061 H   0  0  0  0  0  0  0  0  0  0  0  0
    5.1361    0.0967    0.4465 H   0  0  0  0  0  0  0  0  0  0  0  0
    5.3956   -0.9006   -1.0168 H   0  0  0  0  0  0  0  0  0  0  0  0
    0.0721   -2.8135   -0.0482 H   0  0  0  0  0  0  0  0  0  0  0  0
    1.1800   -2.1002   -1.2410 H   0  0  0  0  0  0  0  0  0  0  0  0
    3.0715   -3.3974   -0.2669 H   0  0  0  0  0  0  0  0  0  0  0  0
    1.9909   -4.0658    0.9634 H   0  0  0  0  0  0  0  0  0  0  0  0
    1.7578   -4.4880   -0.7425 H   0  0  0  0  0  0  0  0  0  0  0  0
   -0.2713    2.6360   -0.5376 H   0  0  0  0  0  0  0  0  0  0  0  0
    1.0171    2.4611    0.7059 H   0  0  0  0  0  0  0  0  0  0  0  0
   -3.3906    2.9237   -2.2453 H   0  0  0  0  0  0  0  0  0  0  0  0
   -2.8537    1.3022   -2.7823 H   0  0  0  0  0  0  0  0  0  0  0  0
   -5.3346    1.8205   -1.0713 H   0  0  0  0  0  0  0  0  0  0  0  0
   -5.3584    1.5208   -2.8202 H   0  0  0  0  0  0  0  0  0  0  0  0
   -4.8034    0.2580   -1.7108 H   0  0  0  0  0  0  0  0  0  0  0  0
   -4.6404   -1.3522    1.7169 H   0  0  0  0  0  0  0  0  0  0  0  0
   -3.5672   -2.0608    0.4712 H   0  0  0  0  0  0  0  0  0  0  0  0
   -2.7950   -2.6550    2.7799 H   0  0  0  0  0  0  0  0  0  0  0  0
   -1.5963   -1.6734    1.9219 H   0  0  0  0  0  0  0  0  0  0  0  0
   -2.6185   -0.9300    3.1539 H   0  0  0  0  0  0  0  0  0  0  0  0
  1  2  1  0  0  0  0
  2  3  1  0  0  0  0
  3  4  2  0  0  0  0
  4  5  2  0  0  0  0
  4  6  2  0  0  0  0
  6  7  1  0  0  0  0
  7  8  1  0  0  0  0
  4  9  1  0  0  0  0
  9 10  1  0  0  0  0
 10 11  1  0  0  0  0
 11 12  1  0  0  0  0
 12 13  2  0  0  0  0
 12 14  2  0  0  0  0
 14 15  1  0  0  0  0
 15 16  1  0  0  0  0
 12 17  2  0  0  0  0
 17 18  1  0  0  0  0
 18 19  1  0  0  0  0
  1 20  1  0  0  0  0
  1 21  1  0  0  0  0
  1 22  1  0  0  0  0
  2 23  1  0  0  0  0
  2 24  1  0  0  0  0
  7 25  1  0  0  0  0
  7 26  1  0  0  0  0
  8 27  1  0  0  0  0
  8 28  1  0  0  0  0
  8 29  1  0  0  0  0
 10 30  1  0  0  0  0
 10 31  1  0  0  0  0
 15 32  1  0  0  0  0
 15 33  1  0  0  0  0
 16 34  1  0  0  0  0
 16 35  1  0  0  0  0
 16 36  1  0  0  0  0
 18 37  1  0  0  0  0
 18 38  1  0  0  0  0
 19 39  1  0  0  0  0
 19 40  1  0  0  0  0
 19 41  1  0  0  0  0
M  END
