41
 xtb: 6.7.1 (edcfbbe)
C            5.00521005132063       -1.47218673400265       -1.09212955276292
C            4.89127857226031       -0.16797173245487       -0.34373117032784
O            3.59974979398510       -0.03844971890927        0.34598661782628
P            2.23774911750348        0.37752831029970       -0.40698686076610
S            2.40735202371822        1.49407742792321       -1.99336795453793
O            1.38701477771394        0.97890384489802        0.81620670523658
C            1.60385764644423        2.37173060046745        1.24320781408552
C            0.81965578269666        2.57297961954981        2.51374647941742
S            1.32875848798898       -1.51448580250059       -0.66670307882227
C           -0.06361512993237       -1.11688822209242       -1.81954547819288
S           -1.70736484661544       -1.64029762030198       -1.20563733926619
P           -2.29039489659984        0.05103223919802       -0.04935165046185
S           -2.02067184332372        1.77745312947230       -0.89870407683711
O           -1.55455819080893       -0.02417654649046        1.36935141914712
C           -1.64223129034543       -1.21146045812908        2.23844744870855
C           -0.54006064166171       -1.09803183218023        3.25894979261870
O           -3.78817680886960       -0.38875917840158        0.33722150869898
C           -4.88757821349513       -0.31706473714230       -0.63873810764576
C           -6.17645384841132       -0.30890663312056        0.14003233560944
H            4.82223358249022       -2.32335874535764       -0.42984690121961
H            4.30850146470679       -1.51752107839347       -1.93399034344066
H            6.02265847879145       -1.55645928739483       -1.48791362568889
H            5.01542600386663        0.69626665565010       -1.00284204498818
H            5.61887673204717       -0.10502859630644        0.46797637749653
H            2.67646124370344        2.52652053217540        1.40066327497612
H            1.25662832623610        3.02798706106959        0.43963532620109
H            1.16514103706802        1.89487484154936        3.29909651445317
H            0.96383019394658        3.60224108706684        2.85677877881729
H           -0.24869673538708        2.41206024974326        2.34413317369371
H            0.09999142528761       -1.67916151047311       -2.74171072744988
H           -0.06782018865616       -0.04632703442976       -2.05069451174508
H           -2.63329079635208       -1.21015710598731        2.70050950394331
H           -1.52900417023239       -2.10763838235100        1.61987408956652
H           -0.65098487803596       -0.18851091824159        3.85592187069445
H           -0.59483304568033       -1.96020347709240        3.93083549848661
H            0.44214172963545       -1.09514101677302        2.77775337927084
H           -4.76634104002934        0.59409443350742       -1.23285353936337
H           -4.81275290982198       -1.19105677012450       -1.29291129147341
H           -6.24031337176831        0.57475083154459        0.78110081942378
H           -7.01306973528684       -0.28720299456615       -0.56506932221943
H           -6.26788883162089       -1.20794229025385        0.75599226049951
