  31
 
 C          3.6895700656       -0.3951327962       -0.0383096300
 C          2.2210314052       -0.2876537731        0.3641842330
 H          2.1589241313       -0.2404261529        1.4577638039
 C          1.4275322716       -1.5029597711       -0.1130641624
 C         -0.0390635126       -1.3783004830        0.2867392098
 C         -0.6656407822       -0.1202497545       -0.3147264375
 H         -0.5423985694       -0.1528970836       -1.4036206559
 C          0.1154785606        1.1107844969        0.1702743719
 H          0.0323245703        1.1823540490        1.2672177951
 C          1.5942984523        0.9821366643       -0.2095147861
 O         -0.4594087562        2.2659409494       -0.4186167941
 C         -2.1781920561        0.0170648518       -0.0443485428
 C         -2.9793061600       -0.9563199761       -0.9083570007
 C         -2.5588010450       -0.1638217971        1.4241333175
 H          3.7825421886       -0.4415047219       -1.1211258958
 H          4.2497792293        0.4658336936        0.3184782660
 H          4.1334437993       -1.2936681173        0.3831893702
 H          1.5056697232       -1.5803164411       -1.1998068235
 H          1.8506068004       -2.4118209998        0.3193395295
 H         -0.5857779856       -2.2578218095       -0.0538940289
 H         -0.1059482312       -1.3348696166        1.3749997958
 H          1.6682543277        0.9684328404       -1.2997255665
 H          2.1391147691        1.8578002759        0.1533341534
 H          0.0484219728        3.0430255451       -0.1505226995
 H         -2.4481189586        1.0354412568       -0.3446096763
 H         -4.0446241353       -0.7914688066       -0.7654928902
 H         -2.7574302034       -1.9864558383       -0.6401330447
 H         -2.7495085359       -0.8151268861       -1.9618259765
 H         -3.6112281288        0.0752000890        1.5597355072
 H         -1.9790627904        0.4956547773        2.0646090842
 H         -2.4018547640       -1.1912649417        1.7424017440
          31
        -35.71758158
 C          3.6889266605        0.3685344109        0.0440138023
 C          2.2150679205        0.2960573949       -0.3465099514
 H          2.1393948142        0.3298463158       -1.4392544628
 C          1.4316814311        1.4745622604        0.2307695267
 C         -0.0396756220        1.3872163370       -0.1628410511
 C         -0.6692759545        0.0900889558        0.3470699160
 H         -0.5431822015        0.0563055316        1.4371361716
 C          0.1071441822       -1.1064858133       -0.2333660875
 H          0.0079122475       -1.1136396245       -1.3245027678
 C          1.5891193266       -1.0094757692        0.1411847358
 O         -0.4358223300       -2.3497081278        0.1742581150
 C         -2.1815265520       -0.0246345847        0.0639632298
 C         -2.9901135659        0.8319594538        1.0377297872
 C         -2.5624046167        0.3265477113       -1.3732364061
 H          4.2380349397       -0.4693875825       -0.3784930650
 H          4.1335695298        1.2911729179       -0.3208906261
 H          3.7967471628        0.3399175128        1.1260698449
 H          1.5230832525        1.4703889643        1.3194034998
 H          1.8539337468        2.4120242217       -0.1361483068
 H         -0.5787974126        2.2421375062        0.2473290959
 H         -0.1146514406        1.4266808843       -1.2502991571
 H          1.6823435607       -1.0670594468        1.2294432136
 H          2.1162444296       -1.8651137802       -0.2867732353
 H         -0.3136926141       -2.4404543426        1.1297881748
 H         -2.4491797078       -1.0750151298        0.2301298951
 H         -4.0542925063        0.6890516235        0.8658455835
 H         -2.7641023312        1.8870474805        0.9025703699
 H         -2.7714427240        0.5611584492        2.0681749867
 H         -3.6101659337        0.0879253109       -1.5415423685
 H         -1.9699375745       -0.2439218963       -2.0837546801
 H         -2.4219294712        1.3867767972       -1.5666221403
