  27
 
 C          3.6801780519       -0.3529356495        0.1087877149
 C          2.2026418100       -0.2256350056       -0.0112644757
 C          1.5709043903        0.9542614170        0.0919542004
 C          0.1373377031        1.1243226793       -0.0670758619
 O         -0.3893204649        2.2302396966        0.0246991811
 C         -0.6554608920       -0.1258996688       -0.4115996093
 H         -0.5581234347       -0.2244796601       -1.5028179510
 C         -0.0025328705       -1.3476778014        0.2335095154
 C          1.4343793318       -1.4836235030       -0.2581225689
 C         -2.1523103082        0.0556776718       -0.1003035184
 C         -3.0048970301       -1.0053366749       -0.7919754028
 C         -2.4286205930        0.0688283362        1.4020908951
 H          4.0777485676       -0.8867706416       -0.7523737730
 H          3.9268279283       -0.9358846306        0.9952983250
 H          4.1583673084        0.6191504473        0.1822062616
 H          2.1216123537        1.8653424455        0.2841034584
 H          0.0010525305       -1.2293882640        1.3181009770
 H         -0.5676120057       -2.2454873721       -0.0147835360
 H          1.9292653603       -2.3244026915        0.2296268619
 H          1.4350480448       -1.6822424319       -1.3350199152
 H         -2.4296845966        1.0392060549       -0.4989668823
 H         -4.0590201384       -0.7941992684       -0.6313449730
 H         -2.7943682679       -1.9933629713       -0.3911056033
 H         -2.8177977739       -1.0150556123       -1.8629724582
 H         -3.4647645681        0.3435450182        1.5844809738
 H         -1.7931229302        0.8001387050        1.8973706298
 H         -2.2537934409       -0.9099486402        1.8408922069
          27
        -33.64500151
 C          3.6837733465       -0.2827790930        0.1449400107
 C          2.2053550467       -0.1873030841        0.0051072126
 C          1.5604344738        0.9893894847       -0.0318701371
 C          0.1260905660        1.1231984184       -0.2163769086
 O         -0.4142684685        2.2255781107       -0.2544018481
 C         -0.6484332476       -0.1680791305       -0.4241525419
 H         -0.5350828348       -0.3899108313       -1.4955900937
 C          0.0098367877       -1.2988025023        0.3653860083
 C          1.4530526787       -1.4749364178       -0.0937732916
 C         -2.1512068331        0.0285578641       -0.1539120488
 C         -2.9836093050       -1.1037977999       -0.7507068649
 C         -2.4514073059        0.1864268110        1.3355476360
 H          4.0897137352       -0.9263093974       -0.6330716849
 H          3.9318002816       -0.7356396087        1.1039036470
 H          4.1527263959        0.6945810484        0.0866634385
 H          2.1005158764        1.9225733240        0.0554708861
 H          0.0012090437       -1.0543334783        1.4286563928
 H         -0.5439898027       -2.2256530632        0.2189546284
 H          1.9526059542       -2.2438300181        0.4970528861
 H          1.4674169448       -1.8029788855       -1.1383787089
 H         -2.4308070288        0.9652600644       -0.6516122582
 H         -2.7677707681       -2.0465796993       -0.2546318215
 H         -2.7821482333       -1.2136555166       -1.8136712774
 H         -4.0420186750       -0.8904870605       -0.6241434126
 H         -3.4937677050        0.4631491519        1.4746789728
 H         -1.8328583294        0.9721740352        1.7649491052
 H         -2.2712459241       -0.7415991285        1.8718556693
