 xtb: 6.7.1 (edcfbbe)
          04092513593D

 41 40  0     0  0            999 V2000
    2.7823   -0.0942    3.3958 C   0  0  0  0  0  0  0  0  0  0  0  0
    1.5316   -0.5022    2.6453 C   0  0  0  0  0  0  0  0  0  0  0  0
    1.4129    0.1875    1.3857 O   0  0  0  0  0  0  0  0  0  0  0  0
    2.2978   -0.1750    0.1216 P   0  0  0  0  0  0  0  0  0  0  0  0
    2.9731   -2.0148    0.0243 S   0  0  0  0  0  0  0  0  0  0  0  0
    3.4111    0.9577    0.1796 O   0  0  0  0  0  0  0  0  0  0  0  0
    4.6728    0.8694   -0.5081 C   0  0  0  0  0  0  0  0  0  0  0  0
    4.5348    1.0784   -2.0027 C   0  0  0  0  0  0  0  0  0  0  0  0
    0.9913    0.4671   -1.4101 S   0  0  0  0  0  0  0  0  0  0  0  0
    0.0880   -1.0942   -1.6218 C   0  0  0  0  0  0  0  0  0  0  0  0
   -0.8757   -1.5965   -0.1684 S   0  0  0  0  0  0  0  0  0  0  0  0
   -2.2316    0.0344   -0.1418 P   0  0  0  0  0  0  0  0  0  0  0  0
   -2.7488    0.7498   -1.8940 S   0  0  0  0  0  0  0  0  0  0  0  0
   -1.5237    1.0386    0.8520 O   0  0  0  0  0  0  0  0  0  0  0  0
   -1.5478    2.4697    0.6878 C   0  0  0  0  0  0  0  0  0  0  0  0
   -2.8270    3.0612    1.2424 C   0  0  0  0  0  0  0  0  0  0  0  0
   -3.3989   -0.5064    0.7899 O   0  0  0  0  0  0  0  0  0  0  0  0
   -4.3292   -1.5259    0.3644 C   0  0  0  0  0  0  0  0  0  0  0  0
   -5.6301   -0.9092   -0.1137 C   0  0  0  0  0  0  0  0  0  0  0  0
    2.7847   -0.5713    4.3711 H   0  0  0  0  0  0  0  0  0  0  0  0
    3.6664   -0.4120    2.8445 H   0  0  0  0  0  0  0  0  0  0  0  0
    2.8136    0.9849    3.5203 H   0  0  0  0  0  0  0  0  0  0  0  0
    0.6237   -0.2239    3.1829 H   0  0  0  0  0  0  0  0  0  0  0  0
    1.5286   -1.5804    2.4524 H   0  0  0  0  0  0  0  0  0  0  0  0
    5.2747    1.6555   -0.0496 H   0  0  0  0  0  0  0  0  0  0  0  0
    5.1150   -0.1096   -0.2967 H   0  0  0  0  0  0  0  0  0  0  0  0
    5.5244    1.1162   -2.4480 H   0  0  0  0  0  0  0  0  0  0  0  0
    3.9783    0.2556   -2.4488 H   0  0  0  0  0  0  0  0  0  0  0  0
    4.0115    2.0081   -2.2102 H   0  0  0  0  0  0  0  0  0  0  0  0
    0.7921   -1.9042   -1.8097 H   0  0  0  0  0  0  0  0  0  0  0  0
   -0.5805   -0.9423   -2.4687 H   0  0  0  0  0  0  0  0  0  0  0  0
   -0.6676    2.8157    1.2322 H   0  0  0  0  0  0  0  0  0  0  0  0
   -1.4382    2.7055   -0.3762 H   0  0  0  0  0  0  0  0  0  0  0  0
   -2.7800    4.1438    1.1743 H   0  0  0  0  0  0  0  0  0  0  0  0
   -3.6789    2.7049    0.6652 H   0  0  0  0  0  0  0  0  0  0  0  0
   -2.9585    2.7689    2.2806 H   0  0  0  0  0  0  0  0  0  0  0  0
   -3.8702   -2.1315   -0.4224 H   0  0  0  0  0  0  0  0  0  0  0  0
   -4.4871   -2.1440    1.2504 H   0  0  0  0  0  0  0  0  0  0  0  0
   -5.4607   -0.3080   -1.0042 H   0  0  0  0  0  0  0  0  0  0  0  0
   -6.3327   -1.7021   -0.3505 H   0  0  0  0  0  0  0  0  0  0  0  0
   -6.0524   -0.2775    0.6628 H   0  0  0  0  0  0  0  0  0  0  0  0
  1  2  1  0  0  0  0
  2  3  1  0  0  0  0
  3  4  2  0  0  0  0
  4  5  2  0  0  0  0
  4  6  2  0  0  0  0
  6  7  1  0  0  0  0
  7  8  1  0  0  0  0
  4  9  1  0  0  0  0
  9 10  1  0  0  0  0
 10 11  1  0  0  0  0
 11 12  1  0  0  0  0
 12 13  2  0  0  0  0
 12 14  2  0  0  0  0
 14 15  1  0  0  0  0
 15 16  1  0  0  0  0
 12 17  2  0  0  0  0
 17 18  1  0  0  0  0
 18 19  1  0  0  0  0
  1 20  1  0  0  0  0
  1 21  1  0  0  0  0
  1 22  1  0  0  0  0
  2 23  1  0  0  0  0
  2 24  1  0  0  0  0
  7 25  1  0  0  0  0
  7 26  1  0  0  0  0
  8 27  1  0  0  0  0
  8 28  1  0  0  0  0
  8 29  1  0  0  0  0
 10 30  1  0  0  0  0
 10 31  1  0  0  0  0
 15 32  1  0  0  0  0
 15 33  1  0  0  0  0
 16 34  1  0  0  0  0
 16 35  1  0  0  0  0
 16 36  1  0  0  0  0
 18 37  1  0  0  0  0
 18 38  1  0  0  0  0
 19 39  1  0  0  0  0
 19 40  1  0  0  0  0
 19 41  1  0  0  0  0
M  END
