 xtb: 6.7.1 (edcfbbe)
          04092505203D

 41 40  0     0  0            999 V2000
    0.8365   -1.6671    2.3585 C   0  0  0  0  0  0  0  0  0  0  0  0
    1.9245   -2.0389    1.3701 C   0  0  0  0  0  0  0  0  0  0  0  0
    2.7279   -0.8862    1.0544 O   0  0  0  0  0  0  0  0  0  0  0  0
    2.7496   -0.1904   -0.3793 P   0  0  0  0  0  0  0  0  0  0  0  0
    2.9068   -1.4276   -1.8843 S   0  0  0  0  0  0  0  0  0  0  0  0
    3.9825    0.7764   -0.2678 O   0  0  0  0  0  0  0  0  0  0  0  0
    4.0811    1.9000    0.6436 C   0  0  0  0  0  0  0  0  0  0  0  0
    4.6310    1.4771    1.9899 C   0  0  0  0  0  0  0  0  0  0  0  0
    1.0694    1.1425   -0.4476 S   0  0  0  0  0  0  0  0  0  0  0  0
    0.0702    0.2325   -1.6467 C   0  0  0  0  0  0  0  0  0  0  0  0
   -0.9039   -1.1022   -0.9014 S   0  0  0  0  0  0  0  0  0  0  0  0
   -2.3707    0.1578   -0.0489 P   0  0  0  0  0  0  0  0  0  0  0  0
   -3.0272    1.6346   -1.1679 S   0  0  0  0  0  0  0  0  0  0  0  0
   -1.6189    0.5797    1.2793 O   0  0  0  0  0  0  0  0  0  0  0  0
   -1.9601    1.7733    2.0137 C   0  0  0  0  0  0  0  0  0  0  0  0
   -3.3062    1.6432    2.6941 C   0  0  0  0  0  0  0  0  0  0  0  0
   -3.4836   -0.8309    0.5018 O   0  0  0  0  0  0  0  0  0  0  0  0
   -4.6070   -1.2512   -0.2906 C   0  0  0  0  0  0  0  0  0  0  0  0
   -4.1922   -2.1578   -1.4315 C   0  0  0  0  0  0  0  0  0  0  0  0
    1.2773   -1.2497    3.2593 H   0  0  0  0  0  0  0  0  0  0  0  0
    0.1575   -0.9355    1.9275 H   0  0  0  0  0  0  0  0  0  0  0  0
    0.2723   -2.5582    2.6140 H   0  0  0  0  0  0  0  0  0  0  0  0
    1.5053   -2.4542    0.4476 H   0  0  0  0  0  0  0  0  0  0  0  0
    2.6180   -2.7631    1.8029 H   0  0  0  0  0  0  0  0  0  0  0  0
    4.7579    2.5888    0.1351 H   0  0  0  0  0  0  0  0  0  0  0  0
    3.0934    2.3589    0.7422 H   0  0  0  0  0  0  0  0  0  0  0  0
    4.7656    2.3589    2.6087 H   0  0  0  0  0  0  0  0  0  0  0  0
    3.9456    0.7935    2.4825 H   0  0  0  0  0  0  0  0  0  0  0  0
    5.5885    0.9799    1.8608 H   0  0  0  0  0  0  0  0  0  0  0  0
    0.7270   -0.2301   -2.3846 H   0  0  0  0  0  0  0  0  0  0  0  0
   -0.6057    0.9533   -2.1078 H   0  0  0  0  0  0  0  0  0  0  0  0
   -1.1476    1.8798    2.7333 H   0  0  0  0  0  0  0  0  0  0  0  0
   -1.9533    2.6203    1.3201 H   0  0  0  0  0  0  0  0  0  0  0  0
   -3.4817    2.5153    3.3160 H   0  0  0  0  0  0  0  0  0  0  0  0
   -4.0943    1.5788    1.9448 H   0  0  0  0  0  0  0  0  0  0  0  0
   -3.3314    0.7471    3.3083 H   0  0  0  0  0  0  0  0  0  0  0  0
   -5.2512   -1.7688    0.4214 H   0  0  0  0  0  0  0  0  0  0  0  0
   -5.1143   -0.3597   -0.6736 H   0  0  0  0  0  0  0  0  0  0  0  0
   -3.5947   -2.9859   -1.0584 H   0  0  0  0  0  0  0  0  0  0  0  0
   -5.0780   -2.5450   -1.9248 H   0  0  0  0  0  0  0  0  0  0  0  0
   -3.6008   -1.5999   -2.1567 H   0  0  0  0  0  0  0  0  0  0  0  0
  1  2  1  0  0  0  0
  2  3  1  0  0  0  0
  3  4  2  0  0  0  0
  4  5  2  0  0  0  0
  4  6  2  0  0  0  0
  6  7  1  0  0  0  0
  7  8  1  0  0  0  0
  4  9  1  0  0  0  0
  9 10  1  0  0  0  0
 10 11  1  0  0  0  0
 11 12  1  0  0  0  0
 12 13  2  0  0  0  0
 12 14  2  0  0  0  0
 14 15  1  0  0  0  0
 15 16  1  0  0  0  0
 12 17  2  0  0  0  0
 17 18  1  0  0  0  0
 18 19  1  0  0  0  0
  1 20  1  0  0  0  0
  1 21  1  0  0  0  0
  1 22  1  0  0  0  0
  2 23  1  0  0  0  0
  2 24  1  0  0  0  0
  7 25  1  0  0  0  0
  7 26  1  0  0  0  0
  8 27  1  0  0  0  0
  8 28  1  0  0  0  0
  8 29  1  0  0  0  0
 10 30  1  0  0  0  0
 10 31  1  0  0  0  0
 15 32  1  0  0  0  0
 15 33  1  0  0  0  0
 16 34  1  0  0  0  0
 16 35  1  0  0  0  0
 16 36  1  0  0  0  0
 18 37  1  0  0  0  0
 18 38  1  0  0  0  0
 19 39  1  0  0  0  0
 19 40  1  0  0  0  0
 19 41  1  0  0  0  0
M  END
