  17
 
 C          1.3987827198       -2.2477652429        0.1813369338
 C          0.5757396176       -1.0944273923       -0.3701197675
 H          0.8342795935       -0.8884271949       -1.4150467468
 C         -0.9265953932       -1.3614647093       -0.2419914170
 O         -1.6692928755       -0.2571037145       -0.7420965538
 N         -2.1225506532        0.6753701065        0.1551861643
 O         -1.9744060451        0.4598924838        1.3133529126
 O         -2.6410745674        1.6086323430       -0.3679473007
 O          0.7987996742        0.1153424580        0.3879981174
 N          1.9273045263        0.8242857299        0.1427046574
 O          2.6778135266        0.4102151890       -0.6836889315
 O          2.0255583076        1.8101412139        0.8022414251
 H          1.2023370485       -2.3698578166        1.2425642536
 H          1.1346069318       -3.1602451548       -0.3406284271
 H          2.4583173561       -2.0579287735        0.0323460483
 H         -1.2094823335       -2.2118424290       -0.8607012218
 H         -1.1878960779       -1.5370291740        0.8049617026
          17
        -39.51389645
 C          1.6738764805       -2.4473716652       -0.3284747726
 C          0.8256406843       -1.1904818696       -0.2303867199
 H          0.4250991164       -0.9066516738       -1.2110406027
 C         -0.3209743731       -1.3748994556        0.7718803438
 O         -1.0843675859       -0.1856439622        0.9569619300
 N         -2.0016970471        0.1328655948       -0.0114548273
 O         -2.1051805555       -0.6118747963       -0.9312728303
 O         -2.5931260972        1.1376963363        0.2081801174
 O          1.6969561999       -0.1396488903        0.2273610417
 N          1.4142275536        1.1362566971       -0.1207442885
 O          0.4372541264        1.3343719187       -0.7801205708
 O          2.2015408059        1.9313519846        0.2796154648
 H          2.4943551372       -2.2819135629       -1.0190446827
 H          2.0814170281       -2.6963122512        0.6456236721
 H          1.0651077131       -3.2680604357       -0.6903998903
 H         -0.9693136473       -2.1856712872        0.4312586574
 H          0.0744161408       -1.5852927029        1.7656962298
