 xtb: 6.7.1 (edcfbbe)
          04092514013D

 41 40  0     0  0            999 V2000
    5.9314   -0.3989    0.2805 C   0  0  0  0  0  0  0  0  0  0  0  0
    4.6007   -0.8222   -0.3111 C   0  0  0  0  0  0  0  0  0  0  0  0
    3.5598   -0.0433    0.3162 O   0  0  0  0  0  0  0  0  0  0  0  0
    2.1197    0.1373   -0.3326 P   0  0  0  0  0  0  0  0  0  0  0  0
    2.1129    0.6299   -2.2337 S   0  0  0  0  0  0  0  0  0  0  0  0
    1.4487    1.1560    0.6741 O   0  0  0  0  0  0  0  0  0  0  0  0
    1.4498    2.5787    0.4457 C   0  0  0  0  0  0  0  0  0  0  0  0
    2.8252    3.1807    0.6391 C   0  0  0  0  0  0  0  0  0  0  0  0
    1.1607   -1.6673    0.1742 S   0  0  0  0  0  0  0  0  0  0  0  0
   -0.1319   -1.7469   -1.1213 C   0  0  0  0  0  0  0  0  0  0  0  0
   -1.7918   -1.9666   -0.4486 S   0  0  0  0  0  0  0  0  0  0  0  0
   -2.1743    0.0402    0.1463 P   0  0  0  0  0  0  0  0  0  0  0  0
   -1.6698    1.4292   -1.1351 S   0  0  0  0  0  0  0  0  0  0  0  0
   -1.4118    0.2414    1.5129 O   0  0  0  0  0  0  0  0  0  0  0  0
   -1.5238   -0.6264    2.6681 C   0  0  0  0  0  0  0  0  0  0  0  0
   -2.5625   -0.1147    3.6454 C   0  0  0  0  0  0  0  0  0  0  0  0
   -3.7015   -0.0075    0.5867 O   0  0  0  0  0  0  0  0  0  0  0  0
   -4.8063    0.2889   -0.2885 C   0  0  0  0  0  0  0  0  0  0  0  0
   -5.0192   -0.7650   -1.3557 C   0  0  0  0  0  0  0  0  0  0  0  0
    6.1201    0.6510    0.0748 H   0  0  0  0  0  0  0  0  0  0  0  0
    5.9268   -0.5520    1.3557 H   0  0  0  0  0  0  0  0  0  0  0  0
    6.7218   -0.9958   -0.1633 H   0  0  0  0  0  0  0  0  0  0  0  0
    4.3995   -1.8789   -0.1161 H   0  0  0  0  0  0  0  0  0  0  0  0
    4.5676   -0.6436   -1.3911 H   0  0  0  0  0  0  0  0  0  0  0  0
    1.0758    2.7684   -0.5665 H   0  0  0  0  0  0  0  0  0  0  0  0
    0.7293    2.9587    1.1717 H   0  0  0  0  0  0  0  0  0  0  0  0
    3.5042    2.8074   -0.1265 H   0  0  0  0  0  0  0  0  0  0  0  0
    2.7564    4.2609    0.5533 H   0  0  0  0  0  0  0  0  0  0  0  0
    3.2167    2.9176    1.6182 H   0  0  0  0  0  0  0  0  0  0  0  0
    0.0631   -2.6240   -1.7332 H   0  0  0  0  0  0  0  0  0  0  0  0
   -0.0881   -0.8333   -1.7203 H   0  0  0  0  0  0  0  0  0  0  0  0
   -1.7637   -1.6380    2.3293 H   0  0  0  0  0  0  0  0  0  0  0  0
   -0.5235   -0.6135    3.1063 H   0  0  0  0  0  0  0  0  0  0  0  0
   -2.3394    0.9101    3.9298 H   0  0  0  0  0  0  0  0  0  0  0  0
   -3.5535   -0.1492    3.2011 H   0  0  0  0  0  0  0  0  0  0  0  0
   -2.5458   -0.7420    4.5316 H   0  0  0  0  0  0  0  0  0  0  0  0
   -5.6611    0.3458    0.3878 H   0  0  0  0  0  0  0  0  0  0  0  0
   -4.6290    1.2671   -0.7451 H   0  0  0  0  0  0  0  0  0  0  0  0
   -4.1751   -0.7823   -2.0429 H   0  0  0  0  0  0  0  0  0  0  0  0
   -5.1304   -1.7492   -0.9087 H   0  0  0  0  0  0  0  0  0  0  0  0
   -5.9186   -0.5203   -1.9132 H   0  0  0  0  0  0  0  0  0  0  0  0
  1  2  1  0  0  0  0
  2  3  1  0  0  0  0
  3  4  2  0  0  0  0
  4  5  2  0  0  0  0
  4  6  2  0  0  0  0
  6  7  1  0  0  0  0
  7  8  1  0  0  0  0
  4  9  1  0  0  0  0
  9 10  1  0  0  0  0
 10 11  1  0  0  0  0
 11 12  1  0  0  0  0
 12 13  2  0  0  0  0
 12 14  2  0  0  0  0
 14 15  1  0  0  0  0
 15 16  1  0  0  0  0
 12 17  2  0  0  0  0
 17 18  1  0  0  0  0
 18 19  1  0  0  0  0
  1 20  1  0  0  0  0
  1 21  1  0  0  0  0
  1 22  1  0  0  0  0
  2 23  1  0  0  0  0
  2 24  1  0  0  0  0
  7 25  1  0  0  0  0
  7 26  1  0  0  0  0
  8 27  1  0  0  0  0
  8 28  1  0  0  0  0
  8 29  1  0  0  0  0
 10 30  1  0  0  0  0
 10 31  1  0  0  0  0
 15 32  1  0  0  0  0
 15 33  1  0  0  0  0
 16 34  1  0  0  0  0
 16 35  1  0  0  0  0
 16 36  1  0  0  0  0
 18 37  1  0  0  0  0
 18 38  1  0  0  0  0
 19 39  1  0  0  0  0
 19 40  1  0  0  0  0
 19 41  1  0  0  0  0
M  END
