  27
 
 C         -5.1696501688        0.0038454356        0.2061945579
 C         -3.7433587881       -0.0017665528        0.7436538960
 C         -2.7152909231       -0.0031053968       -0.3854353689
 C         -1.2807877437       -0.0065441094        0.1360935963
 C         -0.2625789964       -0.0079560408       -1.0105991876
 C          1.1420698083       -0.0046724462       -0.4804986763
 C          1.7958601588        1.1920107770       -0.2142228799
 C          3.0799125027        1.1972810982        0.3011814948
 C          3.7287101688        0.0019716309        0.5605807995
 C          3.0852440357       -1.1965259152        0.3029613086
 C          1.8011004854       -1.1979330921       -0.2124360863
 H         -5.8874964805        0.0049784831        1.0226503704
 H         -5.3423235776        0.8870447835       -0.4048371704
 H         -5.3482994384       -0.8762161565       -0.4076295331
 H         -3.5880163555        0.8780600468        1.3721953150
 H         -3.5936789231       -0.8846572957        1.3692459251
 H         -2.8692936039        0.8791735857       -1.0113869216
 H         -2.8728907548       -0.8839189269       -1.0125076513
 H         -1.1158673775        0.8737248020        0.7619362168
 H         -1.1193919947       -0.8886404455        0.7602876144
 H         -0.4257063122        0.8749411819       -1.6320602142
 H         -0.4236514106       -0.8945181539       -1.6272855616
 H          1.2951612188        2.1276859530       -0.4180305949
 H          3.5770482980        2.1356632948        0.4986411026
 H          4.7318340208        0.0044476189        0.9603229888
 H          3.5865859224       -2.1323136668        0.5021695910
 H          1.3048671356       -2.1363789636       -0.4144273705
          27
        -31.71026706
 C         -3.9012208521       -1.5409802465       -0.2222460114
 C         -3.2826545661       -0.1858619722       -0.5445004566
 C         -2.0024835335        0.0567887632        0.2514601240
 C         -1.3769630613        1.4114337180       -0.0692358117
 C         -0.0924289455        1.6644616820        0.7316921927
 C          0.9896290071        0.6926745314        0.3569174753
 C          1.2923166464       -0.3943385767        1.1667344233
 C          2.2689543373       -1.3029679450        0.7967426471
 C          2.9578696530       -1.1366144603       -0.3922308836
 C          2.6659113776       -0.0551848965       -1.2069349562
 C          1.6897664060        0.8506894766       -0.8336581280
 H         -4.8088767923       -1.6953427953       -0.8005726023
 H         -3.2032144049       -2.3418521257       -0.4561500329
 H         -4.1515891197       -1.6035478867        0.8344445478
 H         -3.0572436469       -0.1346908317       -1.6121080184
 H         -4.0027856066        0.6044131800       -0.3201487661
 H         -1.2833698834       -0.7347433967        0.0273796350
 H         -2.2288817134        0.0069448957        1.3193098332
 H         -1.1497564993        1.4588469037       -1.1365559313
 H         -2.0959676420        2.2024407103        0.1553210539
 H         -0.3129211441        1.5806941726        1.7973453828
 H          0.2499850665        2.6821319323        0.5318361255
 H          0.7584009010       -0.5307186104        2.0963233456
 H          2.4924021363       -2.1429985579        1.4380157834
 H          3.7200340364       -1.8445203171       -0.6821846182
 H          3.2017908796        0.0822420019       -2.1346869997
 H          1.4681306615        1.6944967478       -1.4715676730
