 xtb: 6.7.1 (edcfbbe)
          04092505213D

 41 40  0     0  0            999 V2000
    5.4298   -0.3616   -2.4016 C   0  0  0  0  0  0  0  0  0  0  0  0
    4.0635   -0.8945   -2.0222 C   0  0  0  0  0  0  0  0  0  0  0  0
    3.5134   -0.0228   -1.0111 O   0  0  0  0  0  0  0  0  0  0  0  0
    1.9658   -0.0491   -0.6562 P   0  0  0  0  0  0  0  0  0  0  0  0
    0.7559    0.1892   -2.1740 S   0  0  0  0  0  0  0  0  0  0  0  0
    1.8571    1.0964    0.4132 O   0  0  0  0  0  0  0  0  0  0  0  0
    2.6852    1.1799    1.6047 C   0  0  0  0  0  0  0  0  0  0  0  0
    1.8727    0.8253    2.8337 C   0  0  0  0  0  0  0  0  0  0  0  0
    1.7542   -1.9146    0.3339 S   0  0  0  0  0  0  0  0  0  0  0  0
   -0.0429   -2.0615    0.1962 C   0  0  0  0  0  0  0  0  0  0  0  0
   -0.9519   -1.1199    1.4670 S   0  0  0  0  0  0  0  0  0  0  0  0
   -1.9010    0.4634    0.4412 P   0  0  0  0  0  0  0  0  0  0  0  0
   -1.0837    2.2200    0.1810 S   0  0  0  0  0  0  0  0  0  0  0  0
   -3.1987    0.6788    1.3304 O   0  0  0  0  0  0  0  0  0  0  0  0
   -4.1219   -0.3804    1.6812 C   0  0  0  0  0  0  0  0  0  0  0  0
   -3.9982   -0.7189    3.1534 C   0  0  0  0  0  0  0  0  0  0  0  0
   -2.3462   -0.3378   -0.8717 O   0  0  0  0  0  0  0  0  0  0  0  0
   -2.7381    0.3465   -2.0741 C   0  0  0  0  0  0  0  0  0  0  0  0
   -4.0867    1.0170   -1.9171 C   0  0  0  0  0  0  0  0  0  0  0  0
    5.3402    0.6452   -2.8003 H   0  0  0  0  0  0  0  0  0  0  0  0
    6.0759   -0.3381   -1.5290 H   0  0  0  0  0  0  0  0  0  0  0  0
    5.8659   -1.0083   -3.1557 H   0  0  0  0  0  0  0  0  0  0  0  0
    4.1277   -1.9015   -1.6020 H   0  0  0  0  0  0  0  0  0  0  0  0
    3.3828   -0.9046   -2.8796 H   0  0  0  0  0  0  0  0  0  0  0  0
    3.5481    0.5217    1.4867 H   0  0  0  0  0  0  0  0  0  0  0  0
    3.0123    2.2202    1.6326 H   0  0  0  0  0  0  0  0  0  0  0  0
    0.9625    1.4212    2.8569 H   0  0  0  0  0  0  0  0  0  0  0  0
    1.6007   -0.2279    2.8322 H   0  0  0  0  0  0  0  0  0  0  0  0
    2.4610    1.0388    3.7202 H   0  0  0  0  0  0  0  0  0  0  0  0
   -0.2782   -3.1094    0.3608 H   0  0  0  0  0  0  0  0  0  0  0  0
   -0.3546   -1.7273   -0.7940 H   0  0  0  0  0  0  0  0  0  0  0  0
   -5.1102    0.0228    1.4522 H   0  0  0  0  0  0  0  0  0  0  0  0
   -3.9254   -1.2526    1.0525 H   0  0  0  0  0  0  0  0  0  0  0  0
   -4.1503    0.1750    3.7516 H   0  0  0  0  0  0  0  0  0  0  0  0
   -4.7504   -1.4572    3.4122 H   0  0  0  0  0  0  0  0  0  0  0  0
   -3.0110   -1.1211    3.3693 H   0  0  0  0  0  0  0  0  0  0  0  0
   -1.9640    1.0780   -2.3279 H   0  0  0  0  0  0  0  0  0  0  0  0
   -2.7529   -0.4377   -2.8325 H   0  0  0  0  0  0  0  0  0  0  0  0
   -4.8423    0.2871   -1.6381 H   0  0  0  0  0  0  0  0  0  0  0  0
   -4.0267    1.7844   -1.1453 H   0  0  0  0  0  0  0  0  0  0  0  0
   -4.3648    1.4838   -2.8566 H   0  0  0  0  0  0  0  0  0  0  0  0
  1  2  1  0  0  0  0
  2  3  1  0  0  0  0
  3  4  2  0  0  0  0
  4  5  2  0  0  0  0
  4  6  2  0  0  0  0
  6  7  1  0  0  0  0
  7  8  1  0  0  0  0
  4  9  1  0  0  0  0
  9 10  1  0  0  0  0
 10 11  1  0  0  0  0
 11 12  1  0  0  0  0
 12 13  2  0  0  0  0
 12 14  2  0  0  0  0
 14 15  1  0  0  0  0
 15 16  1  0  0  0  0
 12 17  1  0  0  0  0
 17 18  1  0  0  0  0
 18 19  1  0  0  0  0
  1 20  1  0  0  0  0
  1 21  1  0  0  0  0
  1 22  1  0  0  0  0
  2 23  1  0  0  0  0
  2 24  1  0  0  0  0
  7 25  1  0  0  0  0
  7 26  1  0  0  0  0
  8 27  1  0  0  0  0
  8 28  1  0  0  0  0
  8 29  1  0  0  0  0
 10 30  1  0  0  0  0
 10 31  1  0  0  0  0
 15 32  1  0  0  0  0
 15 33  1  0  0  0  0
 16 34  1  0  0  0  0
 16 35  1  0  0  0  0
 16 36  1  0  0  0  0
 18 37  1  0  0  0  0
 18 38  1  0  0  0  0
 19 39  1  0  0  0  0
 19 40  1  0  0  0  0
 19 41  1  0  0  0  0
M  END
