 xtb: 6.7.1 (edcfbbe)
          04092507313D

 38 37  0     0  0            999 V2000
    5.7275   -1.5911   -0.6749 C   0  0  0  0  0  0  0  0  0  0  0  0
    4.6676   -2.3050   -1.4983 C   0  0  0  0  0  0  0  0  0  0  0  0
    3.4440   -2.4460   -0.7491 O   0  0  0  0  0  0  0  0  0  0  0  0
    2.5741   -1.4587   -0.7684 C   0  0  0  0  0  0  0  0  0  0  0  0
    2.7023   -0.4350   -1.4087 O   0  0  0  0  0  0  0  0  0  0  0  0
    1.3779   -1.7535    0.1125 C   0  0  0  0  0  0  0  0  0  0  0  0
    0.3035   -0.7202   -0.1658 C   0  0  0  0  0  0  0  0  0  0  0  0
   -0.0946   -0.8043   -1.1827 H   0  0  0  0  0  0  0  0  0  0  0  0
    0.7645    0.7074    0.0396 C   0  0  0  0  0  0  0  0  0  0  0  0
    0.2516    1.6395   -0.5451 O   0  0  0  0  0  0  0  0  0  0  0  0
    1.6832    0.8162    0.9721 O   0  0  0  0  0  0  0  0  0  0  0  0
    2.1514    2.1371    1.3120 C   0  0  0  0  0  0  0  0  0  0  0  0
    1.1699    2.8533    2.2254 C   0  0  0  0  0  0  0  0  0  0  0  0
   -1.1052   -0.8887    0.9812 S   0  0  0  0  0  0  0  0  0  0  0  0
   -2.4506    0.3971   -0.0581 P   0  0  0  0  0  0  0  0  0  0  0  0
   -2.3694    0.3451   -2.0104 S   0  0  0  0  0  0  0  0  0  0  0  0
   -3.8526   -0.0720    0.5493 O   0  0  0  0  0  0  0  0  0  0  0  0
   -4.4270   -1.3348    0.1908 C   0  0  0  0  0  0  0  0  0  0  0  0
   -2.3351    1.8364    0.5863 O   0  0  0  0  0  0  0  0  0  0  0  0
   -2.6161    2.0573    1.9852 C   0  0  0  0  0  0  0  0  0  0  0  0
    5.8880   -2.1154    0.2629 H   0  0  0  0  0  0  0  0  0  0  0  0
    6.6568   -1.5624   -1.2339 H   0  0  0  0  0  0  0  0  0  0  0  0
    5.4117   -0.5718   -0.4640 H   0  0  0  0  0  0  0  0  0  0  0  0
    4.9636   -3.3284   -1.7282 H   0  0  0  0  0  0  0  0  0  0  0  0
    4.4528   -1.7531   -2.4179 H   0  0  0  0  0  0  0  0  0  0  0  0
    1.6984   -1.7006    1.1548 H   0  0  0  0  0  0  0  0  0  0  0  0
    1.0143   -2.7616   -0.0839 H   0  0  0  0  0  0  0  0  0  0  0  0
    3.1051    1.9583    1.8082 H   0  0  0  0  0  0  0  0  0  0  0  0
    2.3020    2.6975    0.3850 H   0  0  0  0  0  0  0  0  0  0  0  0
    0.9707    2.2509    3.1076 H   0  0  0  0  0  0  0  0  0  0  0  0
    1.5937    3.8052    2.5273 H   0  0  0  0  0  0  0  0  0  0  0  0
    0.2385    3.0351    1.6939 H   0  0  0  0  0  0  0  0  0  0  0  0
   -5.4640   -1.2860    0.5125 H   0  0  0  0  0  0  0  0  0  0  0  0
   -3.9000   -2.1373    0.7055 H   0  0  0  0  0  0  0  0  0  0  0  0
   -4.3679   -1.4796   -0.8890 H   0  0  0  0  0  0  0  0  0  0  0  0
   -2.0352    1.3665    2.5974 H   0  0  0  0  0  0  0  0  0  0  0  0
   -3.6786    1.9160    2.1710 H   0  0  0  0  0  0  0  0  0  0  0  0
   -2.3237    3.0867    2.1764 H   0  0  0  0  0  0  0  0  0  0  0  0
  1  2  1  0  0  0  0
  2  3  1  0  0  0  0
  3  4  1  0  0  0  0
  4  5  2  0  0  0  0
  4  6  1  0  0  0  0
  6  7  1  0  0  0  0
  7  8  1  0  0  0  0
  7  9  1  0  0  0  0
  9 10  2  0  0  0  0
  9 11  1  0  0  0  0
 11 12  1  0  0  0  0
 12 13  1  0  0  0  0
  7 14  1  0  0  0  0
 14 15  1  0  0  0  0
 15 16  2  0  0  0  0
 15 17  2  0  0  0  0
 17 18  1  0  0  0  0
 15 19  2  0  0  0  0
 19 20  1  0  0  0  0
  1 21  1  0  0  0  0
  1 22  1  0  0  0  0
  1 23  1  0  0  0  0
  2 24  1  0  0  0  0
  2 25  1  0  0  0  0
  6 26  1  0  0  0  0
  6 27  1  0  0  0  0
 12 28  1  0  0  0  0
 12 29  1  0  0  0  0
 13 30  1  0  0  0  0
 13 31  1  0  0  0  0
 13 32  1  0  0  0  0
 18 33  1  0  0  0  0
 18 34  1  0  0  0  0
 18 35  1  0  0  0  0
 20 36  1  0  0  0  0
 20 37  1  0  0  0  0
 20 38  1  0  0  0  0
M  END
