 xtb: 6.7.1 (edcfbbe)
          04092513583D

 41 40  0     0  0            999 V2000
    1.0255   -1.1430   -2.5565 C   0  0  0  0  0  0  0  0  0  0  0  0
    2.4007   -1.2662   -1.9317 C   0  0  0  0  0  0  0  0  0  0  0  0
    2.6351   -0.1773   -1.0030 O   0  0  0  0  0  0  0  0  0  0  0  0
    2.6443   -0.3399    0.5688 P   0  0  0  0  0  0  0  0  0  0  0  0
    3.2744    1.2850    1.4526 S   0  0  0  0  0  0  0  0  0  0  0  0
    3.5461   -1.6398    0.7488 O   0  0  0  0  0  0  0  0  0  0  0  0
    4.2691   -1.9512    1.9543 C   0  0  0  0  0  0  0  0  0  0  0  0
    3.3578   -2.4002    3.0780 C   0  0  0  0  0  0  0  0  0  0  0  0
    0.6986   -1.0061    1.1300 S   0  0  0  0  0  0  0  0  0  0  0  0
   -0.0578    0.6229    1.3342 C   0  0  0  0  0  0  0  0  0  0  0  0
   -0.3085    1.5282   -0.2310 S   0  0  0  0  0  0  0  0  0  0  0  0
   -2.2164    0.8055   -0.7709 P   0  0  0  0  0  0  0  0  0  0  0  0
   -2.8733    1.4305   -2.5068 S   0  0  0  0  0  0  0  0  0  0  0  0
   -3.1821    1.1104    0.4696 O   0  0  0  0  0  0  0  0  0  0  0  0
   -3.9153    2.3456    0.5919 C   0  0  0  0  0  0  0  0  0  0  0  0
   -5.3664    2.1527    0.1936 C   0  0  0  0  0  0  0  0  0  0  0  0
   -1.9905   -0.7501   -0.6027 O   0  0  0  0  0  0  0  0  0  0  0  0
   -3.0645   -1.6846   -0.8762 C   0  0  0  0  0  0  0  0  0  0  0  0
   -2.4642   -3.0741   -0.9129 C   0  0  0  0  0  0  0  0  0  0  0  0
    0.2486   -1.2758   -1.8068 H   0  0  0  0  0  0  0  0  0  0  0  0
    0.9048   -0.1614   -3.0097 H   0  0  0  0  0  0  0  0  0  0  0  0
    0.9132   -1.9043   -3.3221 H   0  0  0  0  0  0  0  0  0  0  0  0
    3.1851   -1.1615   -2.6833 H   0  0  0  0  0  0  0  0  0  0  0  0
    2.5183   -2.2166   -1.4079 H   0  0  0  0  0  0  0  0  0  0  0  0
    4.9481   -2.7483    1.6467 H   0  0  0  0  0  0  0  0  0  0  0  0
    4.8439   -1.0683    2.2506 H   0  0  0  0  0  0  0  0  0  0  0  0
    3.9665   -2.7446    3.9085 H   0  0  0  0  0  0  0  0  0  0  0  0
    2.7388   -1.5707    3.4142 H   0  0  0  0  0  0  0  0  0  0  0  0
    2.7137   -3.2094    2.7442 H   0  0  0  0  0  0  0  0  0  0  0  0
    0.6062    1.2497    1.9304 H   0  0  0  0  0  0  0  0  0  0  0  0
   -1.0160    0.4720    1.8241 H   0  0  0  0  0  0  0  0  0  0  0  0
   -3.8277    2.6266    1.6430 H   0  0  0  0  0  0  0  0  0  0  0  0
   -3.4439    3.1088   -0.0336 H   0  0  0  0  0  0  0  0  0  0  0  0
   -5.9035    3.0814    0.3596 H   0  0  0  0  0  0  0  0  0  0  0  0
   -5.4350    1.8889   -0.8595 H   0  0  0  0  0  0  0  0  0  0  0  0
   -5.8214    1.3655    0.7879 H   0  0  0  0  0  0  0  0  0  0  0  0
   -3.8066   -1.5891   -0.0804 H   0  0  0  0  0  0  0  0  0  0  0  0
   -3.5247   -1.4127   -1.8317 H   0  0  0  0  0  0  0  0  0  0  0  0
   -1.7517   -3.1554   -1.7286 H   0  0  0  0  0  0  0  0  0  0  0  0
   -1.9526   -3.2796    0.0233 H   0  0  0  0  0  0  0  0  0  0  0  0
   -3.2580   -3.7997   -1.0588 H   0  0  0  0  0  0  0  0  0  0  0  0
  1  2  1  0  0  0  0
  2  3  1  0  0  0  0
  3  4  2  0  0  0  0
  4  5  2  0  0  0  0
  4  6  2  0  0  0  0
  6  7  1  0  0  0  0
  7  8  1  0  0  0  0
  4  9  1  0  0  0  0
  9 10  1  0  0  0  0
 10 11  1  0  0  0  0
 11 12  1  0  0  0  0
 12 13  2  0  0  0  0
 12 14  1  0  0  0  0
 14 15  1  0  0  0  0
 15 16  1  0  0  0  0
 12 17  2  0  0  0  0
 17 18  1  0  0  0  0
 18 19  1  0  0  0  0
  1 20  1  0  0  0  0
  1 21  1  0  0  0  0
  1 22  1  0  0  0  0
  2 23  1  0  0  0  0
  2 24  1  0  0  0  0
  7 25  1  0  0  0  0
  7 26  1  0  0  0  0
  8 27  1  0  0  0  0
  8 28  1  0  0  0  0
  8 29  1  0  0  0  0
 10 30  1  0  0  0  0
 10 31  1  0  0  0  0
 15 32  1  0  0  0  0
 15 33  1  0  0  0  0
 16 34  1  0  0  0  0
 16 35  1  0  0  0  0
 16 36  1  0  0  0  0
 18 37  1  0  0  0  0
 18 38  1  0  0  0  0
 19 39  1  0  0  0  0
 19 40  1  0  0  0  0
 19 41  1  0  0  0  0
M  END
