 xtb: 6.7.1 (edcfbbe)
          04092509473D

 38 37  0     0  0            999 V2000
    2.5216   -2.9900    0.4206 C   0  0  0  0  0  0  0  0  0  0  0  0
    3.1625   -2.7573   -0.9386 C   0  0  0  0  0  0  0  0  0  0  0  0
    2.3203   -1.9302   -1.7665 O   0  0  0  0  0  0  0  0  0  0  0  0
    2.3507   -0.6282   -1.5898 C   0  0  0  0  0  0  0  0  0  0  0  0
    3.0837   -0.0498   -0.8155 O   0  0  0  0  0  0  0  0  0  0  0  0
    1.3162    0.0795   -2.4462 C   0  0  0  0  0  0  0  0  0  0  0  0
    0.2010    0.5842   -1.5222 C   0  0  0  0  0  0  0  0  0  0  0  0
   -0.5330    1.1534   -2.0996 H   0  0  0  0  0  0  0  0  0  0  0  0
    0.8052    1.5200   -0.4885 C   0  0  0  0  0  0  0  0  0  0  0  0
    1.2275    2.6094   -0.8018 O   0  0  0  0  0  0  0  0  0  0  0  0
    0.8466    1.0259    0.7309 O   0  0  0  0  0  0  0  0  0  0  0  0
    1.5296    1.8318    1.7173 C   0  0  0  0  0  0  0  0  0  0  0  0
    1.5656    1.0830    3.0326 C   0  0  0  0  0  0  0  0  0  0  0  0
   -0.6366   -0.8524   -0.7753 S   0  0  0  0  0  0  0  0  0  0  0  0
   -2.0020    0.1758    0.4816 P   0  0  0  0  0  0  0  0  0  0  0  0
   -2.3406    2.0566    0.0516 S   0  0  0  0  0  0  0  0  0  0  0  0
   -3.2922   -0.7722    0.4348 O   0  0  0  0  0  0  0  0  0  0  0  0
   -4.1246   -0.8744   -0.7268 C   0  0  0  0  0  0  0  0  0  0  0  0
   -1.5469   -0.0476    1.9759 O   0  0  0  0  0  0  0  0  0  0  0  0
   -1.2194   -1.3629    2.4712 C   0  0  0  0  0  0  0  0  0  0  0  0
    1.5451   -3.4505    0.2982 H   0  0  0  0  0  0  0  0  0  0  0  0
    3.1581   -3.6396    1.0122 H   0  0  0  0  0  0  0  0  0  0  0  0
    2.4045   -2.0412    0.9404 H   0  0  0  0  0  0  0  0  0  0  0  0
    3.2622   -3.6873   -1.4976 H   0  0  0  0  0  0  0  0  0  0  0  0
    4.1351   -2.2684   -0.8312 H   0  0  0  0  0  0  0  0  0  0  0  0
    0.9093   -0.6123   -3.1816 H   0  0  0  0  0  0  0  0  0  0  0  0
    1.7783    0.9413   -2.9296 H   0  0  0  0  0  0  0  0  0  0  0  0
    2.5346    2.0300    1.3308 H   0  0  0  0  0  0  0  0  0  0  0  0
    0.9947    2.7832    1.8016 H   0  0  0  0  0  0  0  0  0  0  0  0
    2.0737    0.1313    2.9081 H   0  0  0  0  0  0  0  0  0  0  0  0
    2.1051    1.6819    3.7593 H   0  0  0  0  0  0  0  0  0  0  0  0
    0.5549    0.9111    3.3897 H   0  0  0  0  0  0  0  0  0  0  0  0
   -3.5845   -1.3727   -1.5317 H   0  0  0  0  0  0  0  0  0  0  0  0
   -4.4447    0.1174   -1.0488 H   0  0  0  0  0  0  0  0  0  0  0  0
   -4.9823   -1.4676   -0.4185 H   0  0  0  0  0  0  0  0  0  0  0  0
   -2.0829   -2.0191    2.3868 H   0  0  0  0  0  0  0  0  0  0  0  0
   -0.9441   -1.2185    3.5123 H   0  0  0  0  0  0  0  0  0  0  0  0
   -0.3817   -1.7686    1.9042 H   0  0  0  0  0  0  0  0  0  0  0  0
  1  2  1  0  0  0  0
  2  3  1  0  0  0  0
  3  4  4  0  0  0  0
  4  5  2  0  0  0  0
  4  6  1  0  0  0  0
  6  7  1  0  0  0  0
  7  8  1  0  0  0  0
  7  9  1  0  0  0  0
  9 10  2  0  0  0  0
  9 11  1  0  0  0  0
 11 12  1  0  0  0  0
 12 13  1  0  0  0  0
  7 14  1  0  0  0  0
 14 15  1  0  0  0  0
 15 16  2  0  0  0  0
 15 17  1  0  0  0  0
 17 18  1  0  0  0  0
 15 19  2  0  0  0  0
 19 20  1  0  0  0  0
  1 21  1  0  0  0  0
  1 22  1  0  0  0  0
  1 23  1  0  0  0  0
  2 24  1  0  0  0  0
  2 25  1  0  0  0  0
  6 26  1  0  0  0  0
  6 27  1  0  0  0  0
 12 28  1  0  0  0  0
 12 29  1  0  0  0  0
 13 30  1  0  0  0  0
 13 31  1  0  0  0  0
 13 32  1  0  0  0  0
 18 33  1  0  0  0  0
 18 34  1  0  0  0  0
 18 35  1  0  0  0  0
 20 36  1  0  0  0  0
 20 37  1  0  0  0  0
 20 38  1  0  0  0  0
M  END
