 xtb: 6.7.1 (edcfbbe)
          04092505213D

 41 40  0     0  0            999 V2000
    3.2517   -1.8462   -2.7127 C   0  0  0  0  0  0  0  0  0  0  0  0
    1.9361   -1.3048   -2.1932 C   0  0  0  0  0  0  0  0  0  0  0  0
    2.1418   -0.0838   -1.4377 O   0  0  0  0  0  0  0  0  0  0  0  0
    2.2555   -0.0392    0.1272 P   0  0  0  0  0  0  0  0  0  0  0  0
    2.5632    1.7510    0.8474 S   0  0  0  0  0  0  0  0  0  0  0  0
    3.4399   -1.0700    0.3952 O   0  0  0  0  0  0  0  0  0  0  0  0
    3.9332   -1.3048    1.7291 C   0  0  0  0  0  0  0  0  0  0  0  0
    5.2611   -2.0256    1.6146 C   0  0  0  0  0  0  0  0  0  0  0  0
    0.5810   -1.0955    0.9300 S   0  0  0  0  0  0  0  0  0  0  0  0
   -0.2010    0.2321    1.9063 C   0  0  0  0  0  0  0  0  0  0  0  0
   -1.9953    0.2354    1.7605 S   0  0  0  0  0  0  0  0  0  0  0  0
   -2.2123    0.8744   -0.2642 P   0  0  0  0  0  0  0  0  0  0  0  0
   -0.6037    1.5990   -1.1250 S   0  0  0  0  0  0  0  0  0  0  0  0
   -3.3823    1.9191   -0.2554 O   0  0  0  0  0  0  0  0  0  0  0  0
   -4.5560    1.8974    0.5986 C   0  0  0  0  0  0  0  0  0  0  0  0
   -5.3070    0.5862    0.5344 C   0  0  0  0  0  0  0  0  0  0  0  0
   -2.8565   -0.3627   -1.0292 O   0  0  0  0  0  0  0  0  0  0  0  0
   -2.0790   -1.4985   -1.4474 C   0  0  0  0  0  0  0  0  0  0  0  0
   -2.8893   -2.2647   -2.4730 C   0  0  0  0  0  0  0  0  0  0  0  0
    3.7543   -1.0896   -3.3089 H   0  0  0  0  0  0  0  0  0  0  0  0
    3.8969   -2.1258   -1.8846 H   0  0  0  0  0  0  0  0  0  0  0  0
    3.0555   -2.7182   -3.3287 H   0  0  0  0  0  0  0  0  0  0  0  0
    1.4297   -2.0352   -1.5549 H   0  0  0  0  0  0  0  0  0  0  0  0
    1.2771   -1.0051   -3.0109 H   0  0  0  0  0  0  0  0  0  0  0  0
    4.0418   -0.3390    2.2339 H   0  0  0  0  0  0  0  0  0  0  0  0
    3.1951   -1.9097    2.2635 H   0  0  0  0  0  0  0  0  0  0  0  0
    5.1289   -2.9705    1.0957 H   0  0  0  0  0  0  0  0  0  0  0  0
    5.9700   -1.4148    1.0626 H   0  0  0  0  0  0  0  0  0  0  0  0
    5.6499   -2.2137    2.6098 H   0  0  0  0  0  0  0  0  0  0  0  0
    0.2118    1.1872    1.5719 H   0  0  0  0  0  0  0  0  0  0  0  0
    0.0098    0.0595    2.9588 H   0  0  0  0  0  0  0  0  0  0  0  0
   -4.2340    2.1133    1.6202 H   0  0  0  0  0  0  0  0  0  0  0  0
   -5.1527    2.7258    0.2140 H   0  0  0  0  0  0  0  0  0  0  0  0
   -4.7020   -0.2138    0.9566 H   0  0  0  0  0  0  0  0  0  0  0  0
   -6.2231    0.6762    1.1101 H   0  0  0  0  0  0  0  0  0  0  0  0
   -5.5506    0.3421   -0.4960 H   0  0  0  0  0  0  0  0  0  0  0  0
   -1.1350   -1.1369   -1.8698 H   0  0  0  0  0  0  0  0  0  0  0  0
   -1.8614   -2.1123   -0.5679 H   0  0  0  0  0  0  0  0  0  0  0  0
   -3.1019   -1.6303   -3.3289 H   0  0  0  0  0  0  0  0  0  0  0  0
   -2.3235   -3.1310   -2.7990 H   0  0  0  0  0  0  0  0  0  0  0  0
   -3.8274   -2.5911   -2.0345 H   0  0  0  0  0  0  0  0  0  0  0  0
  1  2  1  0  0  0  0
  2  3  1  0  0  0  0
  3  4  2  0  0  0  0
  4  5  2  0  0  0  0
  4  6  2  0  0  0  0
  6  7  1  0  0  0  0
  7  8  1  0  0  0  0
  4  9  1  0  0  0  0
  9 10  1  0  0  0  0
 10 11  1  0  0  0  0
 11 12  1  0  0  0  0
 12 13  2  0  0  0  0
 12 14  2  0  0  0  0
 14 15  1  0  0  0  0
 15 16  1  0  0  0  0
 12 17  2  0  0  0  0
 17 18  1  0  0  0  0
 18 19  1  0  0  0  0
  1 20  1  0  0  0  0
  1 21  1  0  0  0  0
  1 22  1  0  0  0  0
  2 23  1  0  0  0  0
  2 24  1  0  0  0  0
  7 25  1  0  0  0  0
  7 26  1  0  0  0  0
  8 27  1  0  0  0  0
  8 28  1  0  0  0  0
  8 29  1  0  0  0  0
 10 30  1  0  0  0  0
 10 31  1  0  0  0  0
 15 32  1  0  0  0  0
 15 33  1  0  0  0  0
 16 34  1  0  0  0  0
 16 35  1  0  0  0  0
 16 36  1  0  0  0  0
 18 37  1  0  0  0  0
 18 38  1  0  0  0  0
 19 39  1  0  0  0  0
 19 40  1  0  0  0  0
 19 41  1  0  0  0  0
M  END
