 xtb: 6.7.1 (edcfbbe)
          04092509463D

 38 37  0     0  0            999 V2000
    5.2286   -2.4196   -1.0428 C   0  0  0  0  0  0  0  0  0  0  0  0
    3.9118   -3.1108   -1.3593 C   0  0  0  0  0  0  0  0  0  0  0  0
    2.9802   -2.1890   -1.9600 O   0  0  0  0  0  0  0  0  0  0  0  0
    2.2582   -1.4142   -1.1786 C   0  0  0  0  0  0  0  0  0  0  0  0
    2.2705   -1.4439    0.0346 O   0  0  0  0  0  0  0  0  0  0  0  0
    1.4048   -0.4586   -1.9866 C   0  0  0  0  0  0  0  0  0  0  0  0
    0.4124    0.2594   -1.0822 C   0  0  0  0  0  0  0  0  0  0  0  0
   -0.0852    1.0700   -1.6275 H   0  0  0  0  0  0  0  0  0  0  0  0
    1.1446    0.8941    0.0886 C   0  0  0  0  0  0  0  0  0  0  0  0
    2.1654    1.5253   -0.0704 O   0  0  0  0  0  0  0  0  0  0  0  0
    0.5281    0.7329    1.2405 O   0  0  0  0  0  0  0  0  0  0  0  0
    1.1209    1.3408    2.4071 C   0  0  0  0  0  0  0  0  0  0  0  0
    0.6184    2.7626    2.5915 C   0  0  0  0  0  0  0  0  0  0  0  0
   -0.8883   -0.8962   -0.5377 S   0  0  0  0  0  0  0  0  0  0  0  0
   -2.2506    0.5173    0.2761 P   0  0  0  0  0  0  0  0  0  0  0  0
   -2.1106    2.3505   -0.3913 S   0  0  0  0  0  0  0  0  0  0  0  0
   -3.6644   -0.1900    0.0081 O   0  0  0  0  0  0  0  0  0  0  0  0
   -4.2353   -0.2803   -1.3027 C   0  0  0  0  0  0  0  0  0  0  0  0
   -2.2017    0.4375    1.8526 O   0  0  0  0  0  0  0  0  0  0  0  0
   -2.2146   -0.8200    2.5539 C   0  0  0  0  0  0  0  0  0  0  0  0
    5.9272   -3.1427   -0.6352 H   0  0  0  0  0  0  0  0  0  0  0  0
    5.6489   -1.9829   -1.9445 H   0  0  0  0  0  0  0  0  0  0  0  0
    5.0692   -1.6305   -0.3106 H   0  0  0  0  0  0  0  0  0  0  0  0
    3.4614   -3.5246   -0.4529 H   0  0  0  0  0  0  0  0  0  0  0  0
    4.0424   -3.8898   -2.1105 H   0  0  0  0  0  0  0  0  0  0  0  0
    0.8966   -1.0028   -2.7815 H   0  0  0  0  0  0  0  0  0  0  0  0
    2.0765    0.2767   -2.4355 H   0  0  0  0  0  0  0  0  0  0  0  0
    0.8228    0.6995    3.2366 H   0  0  0  0  0  0  0  0  0  0  0  0
    2.2074    1.3216    2.2820 H   0  0  0  0  0  0  0  0  0  0  0  0
    0.9152    3.3782    1.7448 H   0  0  0  0  0  0  0  0  0  0  0  0
   -0.4669    2.7694    2.6619 H   0  0  0  0  0  0  0  0  0  0  0  0
    1.0424    3.1798    3.4988 H   0  0  0  0  0  0  0  0  0  0  0  0
   -3.6542   -0.9668   -1.9177 H   0  0  0  0  0  0  0  0  0  0  0  0
   -4.2641    0.7059   -1.7681 H   0  0  0  0  0  0  0  0  0  0  0  0
   -5.2440   -0.6591   -1.1554 H   0  0  0  0  0  0  0  0  0  0  0  0
   -3.1140   -1.3798    2.3045 H   0  0  0  0  0  0  0  0  0  0  0  0
   -2.2023   -0.5586    3.6086 H   0  0  0  0  0  0  0  0  0  0  0  0
   -1.3281   -1.3964    2.2884 H   0  0  0  0  0  0  0  0  0  0  0  0
  1  2  1  0  0  0  0
  2  3  1  0  0  0  0
  3  4  1  0  0  0  0
  4  5  2  0  0  0  0
  4  6  1  0  0  0  0
  6  7  1  0  0  0  0
  7  8  1  0  0  0  0
  7  9  1  0  0  0  0
  9 10  2  0  0  0  0
  9 11  1  0  0  0  0
 11 12  1  0  0  0  0
 12 13  1  0  0  0  0
  7 14  1  0  0  0  0
 14 15  1  0  0  0  0
 15 16  2  0  0  0  0
 15 17  1  0  0  0  0
 17 18  1  0  0  0  0
 15 19  2  0  0  0  0
 19 20  1  0  0  0  0
  1 21  1  0  0  0  0
  1 22  1  0  0  0  0
  1 23  1  0  0  0  0
  2 24  1  0  0  0  0
  2 25  1  0  0  0  0
  6 26  1  0  0  0  0
  6 27  1  0  0  0  0
 12 28  1  0  0  0  0
 12 29  1  0  0  0  0
 13 30  1  0  0  0  0
 13 31  1  0  0  0  0
 13 32  1  0  0  0  0
 18 33  1  0  0  0  0
 18 34  1  0  0  0  0
 18 35  1  0  0  0  0
 20 36  1  0  0  0  0
 20 37  1  0  0  0  0
 20 38  1  0  0  0  0
M  END
