 xtb: 6.7.1 (edcfbbe)
          04092505203D

 41 40  0     0  0            999 V2000
    3.7508   -1.8231   -2.2470 C   0  0  0  0  0  0  0  0  0  0  0  0
    2.4953   -0.9770   -2.2246 C   0  0  0  0  0  0  0  0  0  0  0  0
    1.7852   -1.1112   -0.9789 O   0  0  0  0  0  0  0  0  0  0  0  0
    2.3496   -0.5391    0.3869 P   0  0  0  0  0  0  0  0  0  0  0  0
    3.4445    1.0884    0.2580 S   0  0  0  0  0  0  0  0  0  0  0  0
    3.0884   -1.8107    0.9878 O   0  0  0  0  0  0  0  0  0  0  0  0
    4.0100   -1.7211    2.0883 C   0  0  0  0  0  0  0  0  0  0  0  0
    3.3203   -1.3337    3.3805 C   0  0  0  0  0  0  0  0  0  0  0  0
    0.5515   -0.3995    1.4804 S   0  0  0  0  0  0  0  0  0  0  0  0
    0.1110    1.2630    0.9210 C   0  0  0  0  0  0  0  0  0  0  0  0
   -0.3980    1.3446   -0.8282 S   0  0  0  0  0  0  0  0  0  0  0  0
   -2.4340    0.8299   -0.5943 P   0  0  0  0  0  0  0  0  0  0  0  0
   -3.5405    0.8160   -2.2092 S   0  0  0  0  0  0  0  0  0  0  0  0
   -2.8170    1.9053    0.5101 O   0  0  0  0  0  0  0  0  0  0  0  0
   -4.1874    2.2878    0.7512 C   0  0  0  0  0  0  0  0  0  0  0  0
   -4.9928    1.1586    1.3587 C   0  0  0  0  0  0  0  0  0  0  0  0
   -2.4518   -0.5219    0.2534 O   0  0  0  0  0  0  0  0  0  0  0  0
   -2.6173   -1.8087   -0.3614 C   0  0  0  0  0  0  0  0  0  0  0  0
   -1.4365   -2.1860   -1.2324 C   0  0  0  0  0  0  0  0  0  0  0  0
    3.5112   -2.8560   -2.0085 H   0  0  0  0  0  0  0  0  0  0  0  0
    4.2016   -1.7732   -3.2331 H   0  0  0  0  0  0  0  0  0  0  0  0
    4.4629   -1.4475   -1.5130 H   0  0  0  0  0  0  0  0  0  0  0  0
    1.7727   -1.2997   -2.9753 H   0  0  0  0  0  0  0  0  0  0  0  0
    2.7337    0.0809   -2.3752 H   0  0  0  0  0  0  0  0  0  0  0  0
    4.4455   -2.7195    2.1467 H   0  0  0  0  0  0  0  0  0  0  0  0
    4.7841   -0.9905    1.8325 H   0  0  0  0  0  0  0  0  0  0  0  0
    2.9538   -0.3101    3.3148 H   0  0  0  0  0  0  0  0  0  0  0  0
    2.4790   -1.9949    3.5725 H   0  0  0  0  0  0  0  0  0  0  0  0
    4.0283   -1.4018    4.2002 H   0  0  0  0  0  0  0  0  0  0  0  0
    0.9870    1.9075    1.0014 H   0  0  0  0  0  0  0  0  0  0  0  0
   -0.7004    1.6155    1.5497 H   0  0  0  0  0  0  0  0  0  0  0  0
   -4.1037    3.1383    1.4291 H   0  0  0  0  0  0  0  0  0  0  0  0
   -4.6275    2.6097   -0.1977 H   0  0  0  0  0  0  0  0  0  0  0  0
   -4.4941    0.7723    2.2439 H   0  0  0  0  0  0  0  0  0  0  0  0
   -5.9778    1.5262    1.6289 H   0  0  0  0  0  0  0  0  0  0  0  0
   -5.1034    0.3522    0.6351 H   0  0  0  0  0  0  0  0  0  0  0  0
   -2.7316   -2.4908    0.4818 H   0  0  0  0  0  0  0  0  0  0  0  0
   -3.5343   -1.7889   -0.9593 H   0  0  0  0  0  0  0  0  0  0  0  0
   -0.5153   -2.1889   -0.6550 H   0  0  0  0  0  0  0  0  0  0  0  0
   -1.5989   -3.1734   -1.6522 H   0  0  0  0  0  0  0  0  0  0  0  0
   -1.3377   -1.4676   -2.0472 H   0  0  0  0  0  0  0  0  0  0  0  0
  1  2  1  0  0  0  0
  2  3  1  0  0  0  0
  3  4  2  0  0  0  0
  4  5  2  0  0  0  0
  4  6  2  0  0  0  0
  6  7  1  0  0  0  0
  7  8  1  0  0  0  0
  4  9  1  0  0  0  0
  9 10  1  0  0  0  0
 10 11  1  0  0  0  0
 11 12  1  0  0  0  0
 12 13  2  0  0  0  0
 12 14  2  0  0  0  0
 14 15  1  0  0  0  0
 15 16  1  0  0  0  0
 12 17  2  0  0  0  0
 17 18  1  0  0  0  0
 18 19  1  0  0  0  0
  1 20  1  0  0  0  0
  1 21  1  0  0  0  0
  1 22  1  0  0  0  0
  2 23  1  0  0  0  0
  2 24  1  0  0  0  0
  7 25  1  0  0  0  0
  7 26  1  0  0  0  0
  8 27  1  0  0  0  0
  8 28  1  0  0  0  0
  8 29  1  0  0  0  0
 10 30  1  0  0  0  0
 10 31  1  0  0  0  0
 15 32  1  0  0  0  0
 15 33  1  0  0  0  0
 16 34  1  0  0  0  0
 16 35  1  0  0  0  0
 16 36  1  0  0  0  0
 18 37  1  0  0  0  0
 18 38  1  0  0  0  0
 19 39  1  0  0  0  0
 19 40  1  0  0  0  0
 19 41  1  0  0  0  0
M  END
