 xtb: 6.7.1 (edcfbbe)
          04092505203D

 41 40  0     0  0            999 V2000
    3.2335    0.2390    3.3079 C   0  0  0  0  0  0  0  0  0  0  0  0
    1.8867   -0.2306    2.8003 C   0  0  0  0  0  0  0  0  0  0  0  0
    1.5978    0.3029    1.4894 O   0  0  0  0  0  0  0  0  0  0  0  0
    2.3659   -0.1952    0.1971 P   0  0  0  0  0  0  0  0  0  0  0  0
    2.9564   -2.0686    0.2254 S   0  0  0  0  0  0  0  0  0  0  0  0
    3.5236    0.8840    0.0644 O   0  0  0  0  0  0  0  0  0  0  0  0
    4.6725    0.6828   -0.7765 C   0  0  0  0  0  0  0  0  0  0  0  0
    4.3125    0.6998   -2.2481 C   0  0  0  0  0  0  0  0  0  0  0  0
    0.9641    0.3369   -1.2930 S   0  0  0  0  0  0  0  0  0  0  0  0
   -0.0702   -1.1416   -1.1040 C   0  0  0  0  0  0  0  0  0  0  0  0
   -1.1702   -1.0555    0.3242 S   0  0  0  0  0  0  0  0  0  0  0  0
   -2.5297    0.3562   -0.5300 P   0  0  0  0  0  0  0  0  0  0  0  0
   -2.8893    0.0621   -2.4323 S   0  0  0  0  0  0  0  0  0  0  0  0
   -1.9299    1.7940   -0.2770 O   0  0  0  0  0  0  0  0  0  0  0  0
   -2.0571    2.5737    0.9362 C   0  0  0  0  0  0  0  0  0  0  0  0
   -1.3740    1.9202    2.1184 C   0  0  0  0  0  0  0  0  0  0  0  0
   -3.7920    0.3331    0.4328 O   0  0  0  0  0  0  0  0  0  0  0  0
   -4.8875   -0.5830    0.2472 C   0  0  0  0  0  0  0  0  0  0  0  0
   -4.4812   -2.0234    0.4792 C   0  0  0  0  0  0  0  0  0  0  0  0
    3.3700   -0.0976    4.3307 H   0  0  0  0  0  0  0  0  0  0  0  0
    4.0277   -0.1775    2.6894 H   0  0  0  0  0  0  0  0  0  0  0  0
    3.2924    1.3235    3.2712 H   0  0  0  0  0  0  0  0  0  0  0  0
    1.0670    0.1333    3.4208 H   0  0  0  0  0  0  0  0  0  0  0  0
    1.8511   -1.3231    2.7438 H   0  0  0  0  0  0  0  0  0  0  0  0
    5.3370    1.5072   -0.5143 H   0  0  0  0  0  0  0  0  0  0  0  0
    5.1360   -0.2716   -0.5065 H   0  0  0  0  0  0  0  0  0  0  0  0
    3.7570    1.6023   -2.4915 H   0  0  0  0  0  0  0  0  0  0  0  0
    5.2202    0.6631   -2.8420 H   0  0  0  0  0  0  0  0  0  0  0  0
    3.6960   -0.1647   -2.4918 H   0  0  0  0  0  0  0  0  0  0  0  0
    0.5698   -2.0143   -0.9685 H   0  0  0  0  0  0  0  0  0  0  0  0
   -0.6695   -1.2251   -2.0117 H   0  0  0  0  0  0  0  0  0  0  0  0
   -1.5843    3.5208    0.6713 H   0  0  0  0  0  0  0  0  0  0  0  0
   -3.1198    2.7282    1.1330 H   0  0  0  0  0  0  0  0  0  0  0  0
   -1.4239    2.5901    2.9713 H   0  0  0  0  0  0  0  0  0  0  0  0
   -1.8695    0.9840    2.3693 H   0  0  0  0  0  0  0  0  0  0  0  0
   -0.3324    1.7160    1.8824 H   0  0  0  0  0  0  0  0  0  0  0  0
   -5.6275   -0.2502    0.9765 H   0  0  0  0  0  0  0  0  0  0  0  0
   -5.2769   -0.4527   -0.7670 H   0  0  0  0  0  0  0  0  0  0  0  0
   -3.7977   -2.3487   -0.3035 H   0  0  0  0  0  0  0  0  0  0  0  0
   -3.9876   -2.1300    1.4417 H   0  0  0  0  0  0  0  0  0  0  0  0
   -5.3656   -2.6520    0.4554 H   0  0  0  0  0  0  0  0  0  0  0  0
  1  2  1  0  0  0  0
  2  3  1  0  0  0  0
  3  4  2  0  0  0  0
  4  5  2  0  0  0  0
  4  6  2  0  0  0  0
  6  7  1  0  0  0  0
  7  8  1  0  0  0  0
  4  9  1  0  0  0  0
  9 10  1  0  0  0  0
 10 11  1  0  0  0  0
 11 12  1  0  0  0  0
 12 13  2  0  0  0  0
 12 14  2  0  0  0  0
 14 15  1  0  0  0  0
 15 16  1  0  0  0  0
 12 17  2  0  0  0  0
 17 18  1  0  0  0  0
 18 19  1  0  0  0  0
  1 20  1  0  0  0  0
  1 21  1  0  0  0  0
  1 22  1  0  0  0  0
  2 23  1  0  0  0  0
  2 24  1  0  0  0  0
  7 25  1  0  0  0  0
  7 26  1  0  0  0  0
  8 27  1  0  0  0  0
  8 28  1  0  0  0  0
  8 29  1  0  0  0  0
 10 30  1  0  0  0  0
 10 31  1  0  0  0  0
 15 32  1  0  0  0  0
 15 33  1  0  0  0  0
 16 34  1  0  0  0  0
 16 35  1  0  0  0  0
 16 36  1  0  0  0  0
 18 37  1  0  0  0  0
 18 38  1  0  0  0  0
 19 39  1  0  0  0  0
 19 40  1  0  0  0  0
 19 41  1  0  0  0  0
M  END
