 xtb: 6.7.1 (edcfbbe)
          04092505203D

 41 40  0     0  0            999 V2000
    5.1732   -0.7038   -2.4699 C   0  0  0  0  0  0  0  0  0  0  0  0
    3.7605   -1.0416   -2.0392 C   0  0  0  0  0  0  0  0  0  0  0  0
    3.4682   -0.2896   -0.8428 O   0  0  0  0  0  0  0  0  0  0  0  0
    1.9722   -0.0614   -0.3602 P   0  0  0  0  0  0  0  0  0  0  0  0
    0.8010    0.7086   -1.7245 S   0  0  0  0  0  0  0  0  0  0  0  0
    2.1287    0.8779    0.8886 O   0  0  0  0  0  0  0  0  0  0  0  0
    2.9655    0.5866    2.0366 C   0  0  0  0  0  0  0  0  0  0  0  0
    4.3231    1.2407    1.8896 C   0  0  0  0  0  0  0  0  0  0  0  0
    1.4952   -2.0007    0.3737 S   0  0  0  0  0  0  0  0  0  0  0  0
   -0.1408   -1.7067    1.0997 C   0  0  0  0  0  0  0  0  0  0  0  0
   -1.4647   -1.4558   -0.1168 S   0  0  0  0  0  0  0  0  0  0  0  0
   -2.0335    0.5565    0.3206 P   0  0  0  0  0  0  0  0  0  0  0  0
   -0.9519    1.4254    1.7033 S   0  0  0  0  0  0  0  0  0  0  0  0
   -3.5731    0.4026    0.7081 O   0  0  0  0  0  0  0  0  0  0  0  0
   -3.9729   -0.2686    1.9188 C   0  0  0  0  0  0  0  0  0  0  0  0
   -5.4519   -0.0125    2.1255 C   0  0  0  0  0  0  0  0  0  0  0  0
   -2.1392    1.4121   -0.9888 O   0  0  0  0  0  0  0  0  0  0  0  0
   -3.1286    1.2508   -2.0359 C   0  0  0  0  0  0  0  0  0  0  0  0
   -3.0288   -0.0957   -2.7192 C   0  0  0  0  0  0  0  0  0  0  0  0
    5.8753   -0.9660   -1.6839 H   0  0  0  0  0  0  0  0  0  0  0  0
    5.4134   -1.2637   -3.3676 H   0  0  0  0  0  0  0  0  0  0  0  0
    5.2556    0.3594   -2.6779 H   0  0  0  0  0  0  0  0  0  0  0  0
    3.6558   -2.1040   -1.8044 H   0  0  0  0  0  0  0  0  0  0  0  0
    3.0293   -0.7689   -2.8074 H   0  0  0  0  0  0  0  0  0  0  0  0
    2.4083    0.9980    2.8811 H   0  0  0  0  0  0  0  0  0  0  0  0
    3.0586   -0.4981    2.1418 H   0  0  0  0  0  0  0  0  0  0  0  0
    4.2061    2.3111    1.7432 H   0  0  0  0  0  0  0  0  0  0  0  0
    4.9005    1.0625    2.7913 H   0  0  0  0  0  0  0  0  0  0  0  0
    4.8499    0.8250    1.0348 H   0  0  0  0  0  0  0  0  0  0  0  0
   -0.1019   -0.8283    1.7511 H   0  0  0  0  0  0  0  0  0  0  0  0
   -0.3699   -2.6103    1.6585 H   0  0  0  0  0  0  0  0  0  0  0  0
   -3.7647   -1.3362    1.8024 H   0  0  0  0  0  0  0  0  0  0  0  0
   -3.3760    0.1269    2.7474 H   0  0  0  0  0  0  0  0  0  0  0  0
   -5.7748   -0.5110    3.0334 H   0  0  0  0  0  0  0  0  0  0  0  0
   -5.6362    1.0542    2.2170 H   0  0  0  0  0  0  0  0  0  0  0  0
   -6.0180   -0.3974    1.2824 H   0  0  0  0  0  0  0  0  0  0  0  0
   -4.1162    1.4034   -1.5966 H   0  0  0  0  0  0  0  0  0  0  0  0
   -2.8897    2.0653   -2.7214 H   0  0  0  0  0  0  0  0  0  0  0  0
   -2.0075   -0.2662   -3.0538 H   0  0  0  0  0  0  0  0  0  0  0  0
   -3.3131   -0.8937   -2.0347 H   0  0  0  0  0  0  0  0  0  0  0  0
   -3.6942   -0.1102   -3.5766 H   0  0  0  0  0  0  0  0  0  0  0  0
  1  2  1  0  0  0  0
  2  3  1  0  0  0  0
  3  4  2  0  0  0  0
  4  5  2  0  0  0  0
  4  6  2  0  0  0  0
  6  7  1  0  0  0  0
  7  8  1  0  0  0  0
  4  9  1  0  0  0  0
  9 10  1  0  0  0  0
 10 11  1  0  0  0  0
 11 12  1  0  0  0  0
 12 13  2  0  0  0  0
 12 14  2  0  0  0  0
 14 15  1  0  0  0  0
 15 16  1  0  0  0  0
 12 17  2  0  0  0  0
 17 18  1  0  0  0  0
 18 19  1  0  0  0  0
  1 20  1  0  0  0  0
  1 21  1  0  0  0  0
  1 22  1  0  0  0  0
  2 23  1  0  0  0  0
  2 24  1  0  0  0  0
  7 25  1  0  0  0  0
  7 26  1  0  0  0  0
  8 27  1  0  0  0  0
  8 28  1  0  0  0  0
  8 29  1  0  0  0  0
 10 30  1  0  0  0  0
 10 31  1  0  0  0  0
 15 32  1  0  0  0  0
 15 33  1  0  0  0  0
 16 34  1  0  0  0  0
 16 35  1  0  0  0  0
 16 36  1  0  0  0  0
 18 37  1  0  0  0  0
 18 38  1  0  0  0  0
 19 39  1  0  0  0  0
 19 40  1  0  0  0  0
 19 41  1  0  0  0  0
M  END
