 xtb: 6.7.1 (edcfbbe)
          04032520013D

 20 19  0     0  0            999 V2000
   -1.1978    1.4456   -0.8408 C   0  0  0  0  0  0  0  0  0  0  0  0
   -0.9946    0.2458    0.0921 C   0  0  0  0  0  0  0  0  0  0  0  0
   -1.4838   -1.0383   -0.5885 C   0  0  0  0  0  0  0  0  0  0  0  0
   -1.7338    0.4648    1.4112 C   0  0  0  0  0  0  0  0  0  0  0  0
    0.4944    0.1004    0.3677 C   0  0  0  0  0  0  0  0  0  0  0  0
    1.0111    0.1449    1.4647 O   0  0  0  0  0  0  0  0  0  0  0  0
    1.1932   -0.0857   -0.7469 O   0  0  0  0  0  0  0  0  0  0  0  0
    2.6077   -0.2378   -0.6171 C   0  0  0  0  0  0  0  0  0  0  0  0
   -0.6622    1.2950   -1.7740 H   0  0  0  0  0  0  0  0  0  0  0  0
   -2.2563    1.5630   -1.0556 H   0  0  0  0  0  0  0  0  0  0  0  0
   -0.8353    2.3577   -0.3720 H   0  0  0  0  0  0  0  0  0  0  0  0
   -1.3255   -1.8968    0.0605 H   0  0  0  0  0  0  0  0  0  0  0  0
   -0.9492   -1.2006   -1.5204 H   0  0  0  0  0  0  0  0  0  0  0  0
   -2.5462   -0.9547   -0.8002 H   0  0  0  0  0  0  0  0  0  0  0  0
   -1.5688   -0.3748    2.0819 H   0  0  0  0  0  0  0  0  0  0  0  0
   -1.3701    1.3627    1.9049 H   0  0  0  0  0  0  0  0  0  0  0  0
   -2.7990    0.5680    1.2272 H   0  0  0  0  0  0  0  0  0  0  0  0
    2.8345   -1.1375   -0.0436 H   0  0  0  0  0  0  0  0  0  0  0  0
    3.0308    0.6257   -0.1022 H   0  0  0  0  0  0  0  0  0  0  0  0
    2.9885   -0.3150   -1.6305 H   0  0  0  0  0  0  0  0  0  0  0  0
  1  2  1  0  0  0  0
  2  3  1  0  0  0  0
  2  4  1  0  0  0  0
  2  5  1  0  0  0  0
  5  6  2  0  0  0  0
  5  7  1  0  0  0  0
  7  8  1  0  0  0  0
  1  9  1  0  0  0  0
  1 10  1  0  0  0  0
  1 11  1  0  0  0  0
  3 12  1  0  0  0  0
  3 13  1  0  0  0  0
  3 14  1  0  0  0  0
  4 15  1  0  0  0  0
  4 16  1  0  0  0  0
  4 17  1  0  0  0  0
  8 18  1  0  0  0  0
  8 19  1  0  0  0  0
  8 20  1  0  0  0  0
M  END
