 xtb: 6.7.1 (edcfbbe)
          04092505213D

 41 40  0     0  0            999 V2000
    3.8566    1.0217   -1.9816 C   0  0  0  0  0  0  0  0  0  0  0  0
    2.4861    0.3851   -2.0841 C   0  0  0  0  0  0  0  0  0  0  0  0
    2.2437   -0.5290   -1.0015 O   0  0  0  0  0  0  0  0  0  0  0  0
    2.0312   -0.0292    0.5053 P   0  0  0  0  0  0  0  0  0  0  0  0
    1.1613    1.7064    0.7141 S   0  0  0  0  0  0  0  0  0  0  0  0
    3.4511   -0.0003    1.2071 O   0  0  0  0  0  0  0  0  0  0  0  0
    4.3712   -1.1196    1.1866 C   0  0  0  0  0  0  0  0  0  0  0  0
    4.3516   -1.8481    2.5151 C   0  0  0  0  0  0  0  0  0  0  0  0
    1.1208   -1.7687    1.2677 S   0  0  0  0  0  0  0  0  0  0  0  0
   -0.4267   -1.7476    0.3330 C   0  0  0  0  0  0  0  0  0  0  0  0
   -1.7239   -0.7243    1.1189 S   0  0  0  0  0  0  0  0  0  0  0  0
   -2.3838    0.3829   -0.5741 P   0  0  0  0  0  0  0  0  0  0  0  0
   -1.0886    0.5319   -2.0468 S   0  0  0  0  0  0  0  0  0  0  0  0
   -2.9666    1.7458   -0.0369 O   0  0  0  0  0  0  0  0  0  0  0  0
   -2.1859    2.9100    0.2808 C   0  0  0  0  0  0  0  0  0  0  0  0
   -2.0076    3.0325    1.7809 C   0  0  0  0  0  0  0  0  0  0  0  0
   -3.8001   -0.2228   -0.9412 O   0  0  0  0  0  0  0  0  0  0  0  0
   -4.0941   -1.6260   -1.0507 C   0  0  0  0  0  0  0  0  0  0  0  0
   -3.4033   -2.2726   -2.2355 C   0  0  0  0  0  0  0  0  0  0  0  0
    3.9177    1.6197   -1.0723 H   0  0  0  0  0  0  0  0  0  0  0  0
    4.6290    0.2572   -1.9580 H   0  0  0  0  0  0  0  0  0  0  0  0
    4.0154    1.6680   -2.8389 H   0  0  0  0  0  0  0  0  0  0  0  0
    2.3845   -0.2317   -2.9783 H   0  0  0  0  0  0  0  0  0  0  0  0
    1.6992    1.1461   -2.0829 H   0  0  0  0  0  0  0  0  0  0  0  0
    4.1057   -1.7864    0.3626 H   0  0  0  0  0  0  0  0  0  0  0  0
    5.3472   -0.6681    0.9993 H   0  0  0  0  0  0  0  0  0  0  0  0
    5.1054   -2.6289    2.5022 H   0  0  0  0  0  0  0  0  0  0  0  0
    4.5673   -1.1533    3.3220 H   0  0  0  0  0  0  0  0  0  0  0  0
    3.3758   -2.2965    2.6894 H   0  0  0  0  0  0  0  0  0  0  0  0
   -0.7698   -2.7785    0.3103 H   0  0  0  0  0  0  0  0  0  0  0  0
   -0.2388   -1.3566   -0.6709 H   0  0  0  0  0  0  0  0  0  0  0  0
   -1.2166    2.8574   -0.2262 H   0  0  0  0  0  0  0  0  0  0  0  0
   -2.7587    3.7488   -0.1195 H   0  0  0  0  0  0  0  0  0  0  0  0
   -1.5082    3.9699    2.0023 H   0  0  0  0  0  0  0  0  0  0  0  0
   -2.9753    3.0066    2.2735 H   0  0  0  0  0  0  0  0  0  0  0  0
   -1.3929    2.2175    2.1567 H   0  0  0  0  0  0  0  0  0  0  0  0
   -3.8122   -2.1165   -0.1136 H   0  0  0  0  0  0  0  0  0  0  0  0
   -5.1794   -1.6512   -1.1637 H   0  0  0  0  0  0  0  0  0  0  0  0
   -2.3221   -2.2318   -2.1150 H   0  0  0  0  0  0  0  0  0  0  0  0
   -3.7150   -3.3094   -2.3120 H   0  0  0  0  0  0  0  0  0  0  0  0
   -3.6634   -1.7498   -3.1524 H   0  0  0  0  0  0  0  0  0  0  0  0
  1  2  1  0  0  0  0
  2  3  1  0  0  0  0
  3  4  1  0  0  0  0
  4  5  2  0  0  0  0
  4  6  2  0  0  0  0
  6  7  1  0  0  0  0
  7  8  1  0  0  0  0
  4  9  1  0  0  0  0
  9 10  1  0  0  0  0
 10 11  1  0  0  0  0
 11 12  1  0  0  0  0
 12 13  2  0  0  0  0
 12 14  2  0  0  0  0
 14 15  1  0  0  0  0
 15 16  1  0  0  0  0
 12 17  2  0  0  0  0
 17 18  1  0  0  0  0
 18 19  1  0  0  0  0
  1 20  1  0  0  0  0
  1 21  1  0  0  0  0
  1 22  1  0  0  0  0
  2 23  1  0  0  0  0
  2 24  1  0  0  0  0
  7 25  1  0  0  0  0
  7 26  1  0  0  0  0
  8 27  1  0  0  0  0
  8 28  1  0  0  0  0
  8 29  1  0  0  0  0
 10 30  1  0  0  0  0
 10 31  1  0  0  0  0
 15 32  1  0  0  0  0
 15 33  1  0  0  0  0
 16 34  1  0  0  0  0
 16 35  1  0  0  0  0
 16 36  1  0  0  0  0
 18 37  1  0  0  0  0
 18 38  1  0  0  0  0
 19 39  1  0  0  0  0
 19 40  1  0  0  0  0
 19 41  1  0  0  0  0
M  END
