 xtb: 6.7.1 (edcfbbe)
          04092505203D

 41 40  0     0  0            999 V2000
    2.3623    0.3110   -2.8225 C   0  0  0  0  0  0  0  0  0  0  0  0
    1.9172   -0.8631   -1.9746 C   0  0  0  0  0  0  0  0  0  0  0  0
    2.6809   -0.9547   -0.7605 O   0  0  0  0  0  0  0  0  0  0  0  0
    2.3722   -0.1532    0.5793 P   0  0  0  0  0  0  0  0  0  0  0  0
    2.4742    1.7981    0.5836 S   0  0  0  0  0  0  0  0  0  0  0  0
    3.4592   -0.7398    1.5555 O   0  0  0  0  0  0  0  0  0  0  0  0
    3.6494   -2.1569    1.7932 C   0  0  0  0  0  0  0  0  0  0  0  0
    4.7887   -2.6942    0.9516 C   0  0  0  0  0  0  0  0  0  0  0  0
    0.5300   -1.0148    1.2273 S   0  0  0  0  0  0  0  0  0  0  0  0
   -0.2987    0.4735    1.8766 C   0  0  0  0  0  0  0  0  0  0  0  0
   -2.0756    0.4037    1.6089 S   0  0  0  0  0  0  0  0  0  0  0  0
   -2.0379    0.4712   -0.5280 P   0  0  0  0  0  0  0  0  0  0  0  0
   -0.7185    1.6669   -1.3402 S   0  0  0  0  0  0  0  0  0  0  0  0
   -3.5709    0.6790   -0.8854 O   0  0  0  0  0  0  0  0  0  0  0  0
   -4.4288    1.6855   -0.3162 C   0  0  0  0  0  0  0  0  0  0  0  0
   -3.8588    3.0825   -0.4426 C   0  0  0  0  0  0  0  0  0  0  0  0
   -1.7776   -0.9997   -1.0305 O   0  0  0  0  0  0  0  0  0  0  0  0
   -2.5927   -2.1366   -0.6486 C   0  0  0  0  0  0  0  0  0  0  0  0
   -3.5643   -2.4844   -1.7574 C   0  0  0  0  0  0  0  0  0  0  0  0
    1.8358    0.2869   -3.7712 H   0  0  0  0  0  0  0  0  0  0  0  0
    2.1274    1.2486   -2.3213 H   0  0  0  0  0  0  0  0  0  0  0  0
    3.4336    0.2640   -2.9977 H   0  0  0  0  0  0  0  0  0  0  0  0
    2.1058   -1.8122   -2.4803 H   0  0  0  0  0  0  0  0  0  0  0  0
    0.8523   -0.7841   -1.7341 H   0  0  0  0  0  0  0  0  0  0  0  0
    3.8761   -2.2254    2.8586 H   0  0  0  0  0  0  0  0  0  0  0  0
    2.7132   -2.6811    1.5804 H   0  0  0  0  0  0  0  0  0  0  0  0
    5.6961   -2.1324    1.1550 H   0  0  0  0  0  0  0  0  0  0  0  0
    4.9500   -3.7391    1.1976 H   0  0  0  0  0  0  0  0  0  0  0  0
    4.5528   -2.6047   -0.1053 H   0  0  0  0  0  0  0  0  0  0  0  0
    0.1256    1.3483    1.3735 H   0  0  0  0  0  0  0  0  0  0  0  0
   -0.1507    0.5274    2.9524 H   0  0  0  0  0  0  0  0  0  0  0  0
   -5.3567    1.5824   -0.8815 H   0  0  0  0  0  0  0  0  0  0  0  0
   -4.6010    1.4319    0.7334 H   0  0  0  0  0  0  0  0  0  0  0  0
   -4.5804    3.8030   -0.0713 H   0  0  0  0  0  0  0  0  0  0  0  0
   -2.9412    3.1693    0.1383 H   0  0  0  0  0  0  0  0  0  0  0  0
   -3.6274    3.3063   -1.4815 H   0  0  0  0  0  0  0  0  0  0  0  0
   -1.8768   -2.9416   -0.4721 H   0  0  0  0  0  0  0  0  0  0  0  0
   -3.1168   -1.9028    0.2821 H   0  0  0  0  0  0  0  0  0  0  0  0
   -4.1274   -3.3673   -1.4721 H   0  0  0  0  0  0  0  0  0  0  0  0
   -4.2504   -1.6590   -1.9280 H   0  0  0  0  0  0  0  0  0  0  0  0
   -3.0232   -2.6843   -2.6780 H   0  0  0  0  0  0  0  0  0  0  0  0
  1  2  1  0  0  0  0
  2  3  1  0  0  0  0
  3  4  2  0  0  0  0
  4  5  2  0  0  0  0
  4  6  2  0  0  0  0
  6  7  1  0  0  0  0
  7  8  1  0  0  0  0
  4  9  1  0  0  0  0
  9 10  1  0  0  0  0
 10 11  1  0  0  0  0
 11 12  1  0  0  0  0
 12 13  2  0  0  0  0
 12 14  2  0  0  0  0
 14 15  1  0  0  0  0
 15 16  1  0  0  0  0
 12 17  2  0  0  0  0
 17 18  1  0  0  0  0
 18 19  1  0  0  0  0
  1 20  1  0  0  0  0
  1 21  1  0  0  0  0
  1 22  1  0  0  0  0
  2 23  1  0  0  0  0
  2 24  1  0  0  0  0
  7 25  1  0  0  0  0
  7 26  1  0  0  0  0
  8 27  1  0  0  0  0
  8 28  1  0  0  0  0
  8 29  1  0  0  0  0
 10 30  1  0  0  0  0
 10 31  1  0  0  0  0
 15 32  1  0  0  0  0
 15 33  1  0  0  0  0
 16 34  1  0  0  0  0
 16 35  1  0  0  0  0
 16 36  1  0  0  0  0
 18 37  1  0  0  0  0
 18 38  1  0  0  0  0
 19 39  1  0  0  0  0
 19 40  1  0  0  0  0
 19 41  1  0  0  0  0
M  END
