 xtb: 6.7.1 (edcfbbe)
          04092505213D

 41 40  0     0  0            999 V2000
    3.6294   -2.1722   -2.2903 C   0  0  0  0  0  0  0  0  0  0  0  0
    4.6029   -1.4256   -1.4035 C   0  0  0  0  0  0  0  0  0  0  0  0
    4.0826   -0.1485   -0.9586 O   0  0  0  0  0  0  0  0  0  0  0  0
    2.8257    0.0708   -0.0380 P   0  0  0  0  0  0  0  0  0  0  0  0
    2.8737    1.8797    0.7135 S   0  0  0  0  0  0  0  0  0  0  0  0
    2.9543   -1.1659    0.9595 O   0  0  0  0  0  0  0  0  0  0  0  0
    1.9284   -1.6066    1.8632 C   0  0  0  0  0  0  0  0  0  0  0  0
    1.7699   -0.6808    3.0521 C   0  0  0  0  0  0  0  0  0  0  0  0
    1.0931   -0.3498   -1.2211 S   0  0  0  0  0  0  0  0  0  0  0  0
    0.0191    0.9838   -0.6467 C   0  0  0  0  0  0  0  0  0  0  0  0
   -0.9001    0.5744    0.8634 S   0  0  0  0  0  0  0  0  0  0  0  0
   -2.8327    0.2010    0.0346 P   0  0  0  0  0  0  0  0  0  0  0  0
   -3.0532    0.6618   -1.8657 S   0  0  0  0  0  0  0  0  0  0  0  0
   -3.8195    0.8579    1.0821 O   0  0  0  0  0  0  0  0  0  0  0  0
   -3.6840    2.1786    1.6340 C   0  0  0  0  0  0  0  0  0  0  0  0
   -3.6161    3.2537    0.5679 C   0  0  0  0  0  0  0  0  0  0  0  0
   -3.2271   -1.2907    0.3873 O   0  0  0  0  0  0  0  0  0  0  0  0
   -3.0385   -2.3856   -0.5234 C   0  0  0  0  0  0  0  0  0  0  0  0
   -1.6094   -2.8905   -0.4993 C   0  0  0  0  0  0  0  0  0  0  0  0
    4.1121   -3.0667   -2.6717 H   0  0  0  0  0  0  0  0  0  0  0  0
    2.7442   -2.4615   -1.7266 H   0  0  0  0  0  0  0  0  0  0  0  0
    3.3210   -1.5486   -3.1256 H   0  0  0  0  0  0  0  0  0  0  0  0
    5.5077   -1.1471   -1.9460 H   0  0  0  0  0  0  0  0  0  0  0  0
    4.8636   -2.0135   -0.5219 H   0  0  0  0  0  0  0  0  0  0  0  0
    0.9864   -1.6930    1.3130 H   0  0  0  0  0  0  0  0  0  0  0  0
    2.2649   -2.5976    2.1739 H   0  0  0  0  0  0  0  0  0  0  0  0
    1.4097    0.2941    2.7285 H   0  0  0  0  0  0  0  0  0  0  0  0
    1.0505   -1.1066    3.7440 H   0  0  0  0  0  0  0  0  0  0  0  0
    2.7233   -0.5488    3.5568 H   0  0  0  0  0  0  0  0  0  0  0  0
   -0.6954    1.1869   -1.4483 H   0  0  0  0  0  0  0  0  0  0  0  0
    0.6389    1.8537   -0.4239 H   0  0  0  0  0  0  0  0  0  0  0  0
   -4.5758    2.2897    2.2534 H   0  0  0  0  0  0  0  0  0  0  0  0
   -2.7916    2.2017    2.2661 H   0  0  0  0  0  0  0  0  0  0  0  0
   -4.4678    3.1746   -0.1039 H   0  0  0  0  0  0  0  0  0  0  0  0
   -3.6196    4.2314    1.0390 H   0  0  0  0  0  0  0  0  0  0  0  0
   -2.7039    3.1483   -0.0189 H   0  0  0  0  0  0  0  0  0  0  0  0
   -3.7379   -3.1458   -0.1720 H   0  0  0  0  0  0  0  0  0  0  0  0
   -3.3210   -2.0625   -1.5314 H   0  0  0  0  0  0  0  0  0  0  0  0
   -1.5375   -3.7924   -1.0983 H   0  0  0  0  0  0  0  0  0  0  0  0
   -0.9384   -2.1407   -0.9171 H   0  0  0  0  0  0  0  0  0  0  0  0
   -1.3106   -3.1116    0.5222 H   0  0  0  0  0  0  0  0  0  0  0  0
  1  2  1  0  0  0  0
  2  3  1  0  0  0  0
  3  4  2  0  0  0  0
  4  5  2  0  0  0  0
  4  6  2  0  0  0  0
  6  7  1  0  0  0  0
  7  8  1  0  0  0  0
  4  9  1  0  0  0  0
  9 10  1  0  0  0  0
 10 11  1  0  0  0  0
 11 12  1  0  0  0  0
 12 13  2  0  0  0  0
 12 14  2  0  0  0  0
 14 15  1  0  0  0  0
 15 16  1  0  0  0  0
 12 17  2  0  0  0  0
 17 18  1  0  0  0  0
 18 19  1  0  0  0  0
  1 20  1  0  0  0  0
  1 21  1  0  0  0  0
  1 22  1  0  0  0  0
  2 23  1  0  0  0  0
  2 24  1  0  0  0  0
  7 25  1  0  0  0  0
  7 26  1  0  0  0  0
  8 27  1  0  0  0  0
  8 28  1  0  0  0  0
  8 29  1  0  0  0  0
 10 30  1  0  0  0  0
 10 31  1  0  0  0  0
 15 32  1  0  0  0  0
 15 33  1  0  0  0  0
 16 34  1  0  0  0  0
 16 35  1  0  0  0  0
 16 36  1  0  0  0  0
 18 37  1  0  0  0  0
 18 38  1  0  0  0  0
 19 39  1  0  0  0  0
 19 40  1  0  0  0  0
 19 41  1  0  0  0  0
M  END
