 xtb: 6.7.1 (edcfbbe)
          04092507313D

 38 37  0     0  0            999 V2000
    2.2390   -4.5820   -0.1184 C   0  0  0  0  0  0  0  0  0  0  0  0
    1.9928   -3.5697   -1.2219 C   0  0  0  0  0  0  0  0  0  0  0  0
    1.7802   -2.2748   -0.6242 O   0  0  0  0  0  0  0  0  0  0  0  0
    2.2419   -1.2062   -1.2367 C   0  0  0  0  0  0  0  0  0  0  0  0
    2.8369   -1.2147   -2.2915 O   0  0  0  0  0  0  0  0  0  0  0  0
    1.8984    0.0599   -0.4735 C   0  0  0  0  0  0  0  0  0  0  0  0
    0.7218    0.7443   -1.1712 C   0  0  0  0  0  0  0  0  0  0  0  0
    0.9878    0.9538   -2.2125 H   0  0  0  0  0  0  0  0  0  0  0  0
    0.3230    2.0487   -0.5006 C   0  0  0  0  0  0  0  0  0  0  0  0
   -0.8267    2.2981   -0.1986 O   0  0  0  0  0  0  0  0  0  0  0  0
    1.3443    2.8401   -0.3343 O   0  0  0  0  0  0  0  0  0  0  0  0
    1.1444    4.0957    0.3529 C   0  0  0  0  0  0  0  0  0  0  0  0
    1.4307    3.9307    1.8360 C   0  0  0  0  0  0  0  0  0  0  0  0
   -0.7511   -0.3203   -1.2702 S   0  0  0  0  0  0  0  0  0  0  0  0
   -1.5825   -0.0746    0.6813 P   0  0  0  0  0  0  0  0  0  0  0  0
   -0.4423    0.4326    2.1894 S   0  0  0  0  0  0  0  0  0  0  0  0
   -2.9239    0.7520    0.5944 O   0  0  0  0  0  0  0  0  0  0  0  0
   -3.9390    0.4913   -0.3928 C   0  0  0  0  0  0  0  0  0  0  0  0
   -2.2017   -1.5469    0.8720 O   0  0  0  0  0  0  0  0  0  0  0  0
   -1.3551   -2.6740    1.1122 C   0  0  0  0  0  0  0  0  0  0  0  0
    2.3710   -5.5643   -0.5596 H   0  0  0  0  0  0  0  0  0  0  0  0
    3.1328   -4.3197    0.4404 H   0  0  0  0  0  0  0  0  0  0  0  0
    1.3945   -4.6057    0.5641 H   0  0  0  0  0  0  0  0  0  0  0  0
    1.0935   -3.8138   -1.7947 H   0  0  0  0  0  0  0  0  0  0  0  0
    2.8418   -3.4976   -1.9079 H   0  0  0  0  0  0  0  0  0  0  0  0
    2.7524    0.7373   -0.4969 H   0  0  0  0  0  0  0  0  0  0  0  0
    1.6419   -0.1886    0.5576 H   0  0  0  0  0  0  0  0  0  0  0  0
    1.8499    4.7804   -0.1179 H   0  0  0  0  0  0  0  0  0  0  0  0
    0.1159    4.4259    0.1862 H   0  0  0  0  0  0  0  0  0  0  0  0
    0.7576    3.1929    2.2699 H   0  0  0  0  0  0  0  0  0  0  0  0
    2.4532    3.5983    1.9882 H   0  0  0  0  0  0  0  0  0  0  0  0
    1.2828    4.8809    2.3379 H   0  0  0  0  0  0  0  0  0  0  0  0
   -3.5246    0.6170   -1.3931 H   0  0  0  0  0  0  0  0  0  0  0  0
   -4.7120    1.2314   -0.2031 H   0  0  0  0  0  0  0  0  0  0  0  0
   -4.3264   -0.5187   -0.2699 H   0  0  0  0  0  0  0  0  0  0  0  0
   -0.7344   -2.4922    1.9912 H   0  0  0  0  0  0  0  0  0  0  0  0
   -0.7191   -2.8546    0.2456 H   0  0  0  0  0  0  0  0  0  0  0  0
   -2.0253   -3.5124    1.2823 H   0  0  0  0  0  0  0  0  0  0  0  0
  1  2  1  0  0  0  0
  2  3  1  0  0  0  0
  3  4  1  0  0  0  0
  4  5  2  0  0  0  0
  4  6  1  0  0  0  0
  6  7  1  0  0  0  0
  7  8  1  0  0  0  0
  7  9  1  0  0  0  0
  9 10  2  0  0  0  0
  9 11  4  0  0  0  0
 11 12  1  0  0  0  0
 12 13  1  0  0  0  0
  7 14  1  0  0  0  0
 14 15  1  0  0  0  0
 15 16  2  0  0  0  0
 15 17  2  0  0  0  0
 17 18  1  0  0  0  0
 15 19  1  0  0  0  0
 19 20  1  0  0  0  0
  1 21  1  0  0  0  0
  1 22  1  0  0  0  0
  1 23  1  0  0  0  0
  2 24  1  0  0  0  0
  2 25  1  0  0  0  0
  6 26  1  0  0  0  0
  6 27  1  0  0  0  0
 12 28  1  0  0  0  0
 12 29  1  0  0  0  0
 13 30  1  0  0  0  0
 13 31  1  0  0  0  0
 13 32  1  0  0  0  0
 18 33  1  0  0  0  0
 18 34  1  0  0  0  0
 18 35  1  0  0  0  0
 20 36  1  0  0  0  0
 20 37  1  0  0  0  0
 20 38  1  0  0  0  0
M  END
