 xtb: 6.7.1 (edcfbbe)
          04092505213D

 41 40  0     0  0            999 V2000
    5.6976   -0.3338   -0.7085 C   0  0  0  0  0  0  0  0  0  0  0  0
    4.5815   -1.1585   -1.3140 C   0  0  0  0  0  0  0  0  0  0  0  0
    3.4210   -1.2042   -0.4581 O   0  0  0  0  0  0  0  0  0  0  0  0
    2.5150    0.0681   -0.1890 P   0  0  0  0  0  0  0  0  0  0  0  0
    2.2776    1.2537   -1.7397 S   0  0  0  0  0  0  0  0  0  0  0  0
    3.2066    0.7252    1.0804 O   0  0  0  0  0  0  0  0  0  0  0  0
    2.9305    2.0699    1.5075 C   0  0  0  0  0  0  0  0  0  0  0  0
    1.5273    2.2118    2.0601 C   0  0  0  0  0  0  0  0  0  0  0  0
    0.8317   -0.9314    0.5790 S   0  0  0  0  0  0  0  0  0  0  0  0
    0.0451   -1.2599   -1.0409 C   0  0  0  0  0  0  0  0  0  0  0  0
   -1.6678   -1.7564   -0.8421 S   0  0  0  0  0  0  0  0  0  0  0  0
   -2.4939    0.1188   -0.2142 P   0  0  0  0  0  0  0  0  0  0  0  0
   -1.3998    1.7076   -0.5495 S   0  0  0  0  0  0  0  0  0  0  0  0
   -2.9145   -0.0812    1.3057 O   0  0  0  0  0  0  0  0  0  0  0  0
   -2.0096    0.0849    2.4109 C   0  0  0  0  0  0  0  0  0  0  0  0
   -2.8415    0.2885    3.6612 C   0  0  0  0  0  0  0  0  0  0  0  0
   -3.8807    0.2060   -0.9451 O   0  0  0  0  0  0  0  0  0  0  0  0
   -4.7749   -0.8960   -1.2447 C   0  0  0  0  0  0  0  0  0  0  0  0
   -5.1413   -1.7044   -0.0199 C   0  0  0  0  0  0  0  0  0  0  0  0
    5.4002    0.7129   -0.6612 H   0  0  0  0  0  0  0  0  0  0  0  0
    5.9190   -0.6824    0.2967 H   0  0  0  0  0  0  0  0  0  0  0  0
    6.5855   -0.4204   -1.3269 H   0  0  0  0  0  0  0  0  0  0  0  0
    4.8645   -2.2061   -1.4240 H   0  0  0  0  0  0  0  0  0  0  0  0
    4.2795   -0.7469   -2.2826 H   0  0  0  0  0  0  0  0  0  0  0  0
    3.6861    2.2615    2.2708 H   0  0  0  0  0  0  0  0  0  0  0  0
    3.0769    2.7433    0.6568 H   0  0  0  0  0  0  0  0  0  0  0  0
    0.7973    2.0946    1.2583 H   0  0  0  0  0  0  0  0  0  0  0  0
    1.3445    1.4563    2.8207 H   0  0  0  0  0  0  0  0  0  0  0  0
    1.4074    3.1995    2.4934 H   0  0  0  0  0  0  0  0  0  0  0  0
    0.5542   -2.0874   -1.5299 H   0  0  0  0  0  0  0  0  0  0  0  0
    0.0999   -0.3452   -1.6370 H   0  0  0  0  0  0  0  0  0  0  0  0
   -1.3844   -0.8099    2.4840 H   0  0  0  0  0  0  0  0  0  0  0  0
   -1.3674    0.9489    2.2114 H   0  0  0  0  0  0  0  0  0  0  0  0
   -2.1798    0.4096    4.5123 H   0  0  0  0  0  0  0  0  0  0  0  0
   -3.4588    1.1763    3.5569 H   0  0  0  0  0  0  0  0  0  0  0  0
   -3.4841   -0.5715    3.8241 H   0  0  0  0  0  0  0  0  0  0  0  0
   -5.6436   -0.3958   -1.6754 H   0  0  0  0  0  0  0  0  0  0  0  0
   -4.2952   -1.5257   -1.9980 H   0  0  0  0  0  0  0  0  0  0  0  0
   -4.2623   -2.2151    0.3680 H   0  0  0  0  0  0  0  0  0  0  0  0
   -5.5449   -1.0554    0.7526 H   0  0  0  0  0  0  0  0  0  0  0  0
   -5.8865   -2.4443   -0.2952 H   0  0  0  0  0  0  0  0  0  0  0  0
  1  2  1  0  0  0  0
  2  3  1  0  0  0  0
  3  4  2  0  0  0  0
  4  5  2  0  0  0  0
  4  6  2  0  0  0  0
  6  7  1  0  0  0  0
  7  8  1  0  0  0  0
  4  9  1  0  0  0  0
  9 10  1  0  0  0  0
 10 11  1  0  0  0  0
 11 12  1  0  0  0  0
 12 13  2  0  0  0  0
 12 14  2  0  0  0  0
 14 15  1  0  0  0  0
 15 16  1  0  0  0  0
 12 17  2  0  0  0  0
 17 18  1  0  0  0  0
 18 19  1  0  0  0  0
  1 20  1  0  0  0  0
  1 21  1  0  0  0  0
  1 22  1  0  0  0  0
  2 23  1  0  0  0  0
  2 24  1  0  0  0  0
  7 25  1  0  0  0  0
  7 26  1  0  0  0  0
  8 27  1  0  0  0  0
  8 28  1  0  0  0  0
  8 29  1  0  0  0  0
 10 30  1  0  0  0  0
 10 31  1  0  0  0  0
 15 32  1  0  0  0  0
 15 33  1  0  0  0  0
 16 34  1  0  0  0  0
 16 35  1  0  0  0  0
 16 36  1  0  0  0  0
 18 37  1  0  0  0  0
 18 38  1  0  0  0  0
 19 39  1  0  0  0  0
 19 40  1  0  0  0  0
 19 41  1  0  0  0  0
M  END
