 xtb: 6.7.1 (edcfbbe)
          04092505213D

 41 40  0     0  0            999 V2000
    2.4201   -0.1090   -3.0715 C   0  0  0  0  0  0  0  0  0  0  0  0
    3.2357    0.4795   -1.9379 C   0  0  0  0  0  0  0  0  0  0  0  0
    2.3878    0.9496   -0.8621 O   0  0  0  0  0  0  0  0  0  0  0  0
    1.9740    0.0785    0.3954 P   0  0  0  0  0  0  0  0  0  0  0  0
    0.9959    1.1657    1.6907 S   0  0  0  0  0  0  0  0  0  0  0  0
    3.3512   -0.5315    0.9558 O   0  0  0  0  0  0  0  0  0  0  0  0
    4.2846    0.2908    1.6865 C   0  0  0  0  0  0  0  0  0  0  0  0
    4.1594    0.0365    3.1759 C   0  0  0  0  0  0  0  0  0  0  0  0
    1.1699   -1.7643   -0.2347 S   0  0  0  0  0  0  0  0  0  0  0  0
   -0.1679   -1.9459    0.9889 C   0  0  0  0  0  0  0  0  0  0  0  0
   -1.8213   -1.9949    0.2461 S   0  0  0  0  0  0  0  0  0  0  0  0
   -2.0778    0.0464   -0.2379 P   0  0  0  0  0  0  0  0  0  0  0  0
   -0.7776    0.8520   -1.4776 S   0  0  0  0  0  0  0  0  0  0  0  0
   -2.1998    0.6181    1.2327 O   0  0  0  0  0  0  0  0  0  0  0  0
   -2.8574    1.8479    1.6044 C   0  0  0  0  0  0  0  0  0  0  0  0
   -2.2847    3.0547    0.8923 C   0  0  0  0  0  0  0  0  0  0  0  0
   -3.5753    0.1398   -0.7562 O   0  0  0  0  0  0  0  0  0  0  0  0
   -3.9182   -0.0228   -2.1437 C   0  0  0  0  0  0  0  0  0  0  0  0
   -3.7100   -1.4484   -2.6106 C   0  0  0  0  0  0  0  0  0  0  0  0
    1.6222    0.5773   -3.3453 H   0  0  0  0  0  0  0  0  0  0  0  0
    3.0679   -0.2717   -3.9269 H   0  0  0  0  0  0  0  0  0  0  0  0
    1.9730   -1.0553   -2.7765 H   0  0  0  0  0  0  0  0  0  0  0  0
    3.7644    1.3787   -2.2597 H   0  0  0  0  0  0  0  0  0  0  0  0
    3.9452   -0.2506   -1.5386 H   0  0  0  0  0  0  0  0  0  0  0  0
    5.2697   -0.0001    1.3161 H   0  0  0  0  0  0  0  0  0  0  0  0
    4.1011    1.3447    1.4519 H   0  0  0  0  0  0  0  0  0  0  0  0
    4.2881   -1.0221    3.3820 H   0  0  0  0  0  0  0  0  0  0  0  0
    4.9207    0.6036    3.7019 H   0  0  0  0  0  0  0  0  0  0  0  0
    3.1778    0.3477    3.5267 H   0  0  0  0  0  0  0  0  0  0  0  0
   -0.1115   -1.1186    1.7003 H   0  0  0  0  0  0  0  0  0  0  0  0
   -0.0393   -2.9062    1.4805 H   0  0  0  0  0  0  0  0  0  0  0  0
   -3.9236    1.7362    1.3947 H   0  0  0  0  0  0  0  0  0  0  0  0
   -2.6877    1.9064    2.6809 H   0  0  0  0  0  0  0  0  0  0  0  0
   -2.7541    3.9562    1.2728 H   0  0  0  0  0  0  0  0  0  0  0  0
   -1.2105    3.1107    1.0599 H   0  0  0  0  0  0  0  0  0  0  0  0
   -2.4646    2.9819   -0.1798 H   0  0  0  0  0  0  0  0  0  0  0  0
   -4.9674    0.2715   -2.1902 H   0  0  0  0  0  0  0  0  0  0  0  0
   -3.3074    0.6683   -2.7337 H   0  0  0  0  0  0  0  0  0  0  0  0
   -4.2319   -2.1409   -1.9553 H   0  0  0  0  0  0  0  0  0  0  0  0
   -4.0843   -1.5543   -3.6237 H   0  0  0  0  0  0  0  0  0  0  0  0
   -2.6477   -1.6894   -2.5984 H   0  0  0  0  0  0  0  0  0  0  0  0
  1  2  1  0  0  0  0
  2  3  1  0  0  0  0
  3  4  2  0  0  0  0
  4  5  2  0  0  0  0
  4  6  1  0  0  0  0
  6  7  1  0  0  0  0
  7  8  1  0  0  0  0
  4  9  1  0  0  0  0
  9 10  1  0  0  0  0
 10 11  1  0  0  0  0
 11 12  1  0  0  0  0
 12 13  2  0  0  0  0
 12 14  2  0  0  0  0
 14 15  1  0  0  0  0
 15 16  1  0  0  0  0
 12 17  2  0  0  0  0
 17 18  1  0  0  0  0
 18 19  1  0  0  0  0
  1 20  1  0  0  0  0
  1 21  1  0  0  0  0
  1 22  1  0  0  0  0
  2 23  1  0  0  0  0
  2 24  1  0  0  0  0
  7 25  1  0  0  0  0
  7 26  1  0  0  0  0
  8 27  1  0  0  0  0
  8 28  1  0  0  0  0
  8 29  1  0  0  0  0
 10 30  1  0  0  0  0
 10 31  1  0  0  0  0
 15 32  1  0  0  0  0
 15 33  1  0  0  0  0
 16 34  1  0  0  0  0
 16 35  1  0  0  0  0
 16 36  1  0  0  0  0
 18 37  1  0  0  0  0
 18 38  1  0  0  0  0
 19 39  1  0  0  0  0
 19 40  1  0  0  0  0
 19 41  1  0  0  0  0
M  END
