38
 xtb: 6.7.1 (edcfbbe)
C            5.25449917145430       -1.70642540517652       -2.60422531570077
C            4.80223954283498       -2.49778289886341       -1.40018420194744
O            3.33844413700887       -2.60420560080860       -1.36659501510293
C            2.66634159764049       -1.56499797621354       -0.85962692327364
O            3.18437691459870       -0.56282789864102       -0.39673584315840
C            1.17714004140051       -1.79271541574098       -0.92871126158363
C            0.43742972443828       -0.60752910017623       -0.32771024817607
H            0.60577674673636        0.30206705081863       -0.91019067186507
C            0.81140717000214       -0.38552069386611        1.12588280036069
O            1.07931796180027       -1.28152785426337        1.90659054648408
O            0.76049458098924        0.90821764479709        1.44119889575091
C            0.97509897796055        1.25018637446870        2.85117077500540
C            0.76644329582571        2.73640374055871        2.97937500380730
S           -1.38196347844890       -0.98162737273039       -0.37345447359243
P           -2.23428980228397        0.96750322945569       -0.28814831467130
S           -1.44011623351119        2.31198148633465       -1.43827059341257
O           -3.77531054949556        0.56668323692892       -0.53514917435013
C           -4.26054610093847        0.31442918517258       -1.88615468717657
O           -2.27027028599050        1.44873440404696        1.23959612780661
C           -2.68464121221954        0.56627387481523        2.32464616794674
H            4.88996815034024       -2.16357168576413       -3.52849587701251
H            4.90745094134584       -0.67094638050719       -2.55626246012414
H            6.34869037683732       -1.70082583970969       -2.63242611520735
H            5.14071775090421       -2.05542772793656       -0.46028221035440
H            5.13501979948755       -3.53558464602694       -1.45184709171261
H            0.94429790499206       -2.72651647520513       -0.40589580681609
H            0.89505501297256       -1.92757223122872       -1.97781409069648
H            0.26108990574067        0.67866033359766        3.45135012583408
H            1.99172781249560        0.94945603896198        3.12055317425342
H            0.92334780086540        3.02761263395202        4.02204251644127
H            1.47660790802075        3.28853333100676        2.35739449328135
H           -0.25170855479910        3.01614548003054        2.69339505588095
H           -4.19538257765861        1.22977257792724       -2.47870674216986
H           -5.30052663734576        0.01069782926728       -1.76939533620678
H           -3.68715233100694       -0.48817153812192       -2.35762554182527
H           -2.68258428501693        1.18940683729449        3.21881621833845
H           -1.96966799260701       -0.25318214801833        2.43509184866552
H           -3.68826351877046        0.17693405485752        2.13801404032560
