 xtb: 6.7.1 (edcfbbe)
          04092507313D

 38 37  0     0  0            999 V2000
    4.8621    0.3204   -1.8111 C   0  0  0  0  0  0  0  0  0  0  0  0
    4.5876   -0.8161   -0.8420 C   0  0  0  0  0  0  0  0  0  0  0  0
    3.1965   -1.1806   -0.9397 O   0  0  0  0  0  0  0  0  0  0  0  0
    2.4759   -1.2833    0.1567 C   0  0  0  0  0  0  0  0  0  0  0  0
    2.9034   -1.1684    1.2830 O   0  0  0  0  0  0  0  0  0  0  0  0
    1.0211   -1.5734   -0.1736 C   0  0  0  0  0  0  0  0  0  0  0  0
    0.4409   -0.4404   -1.0254 C   0  0  0  0  0  0  0  0  0  0  0  0
    1.0032   -0.3550   -1.9587 H   0  0  0  0  0  0  0  0  0  0  0  0
    0.4856    0.8751   -0.2772 C   0  0  0  0  0  0  0  0  0  0  0  0
   -0.5212    1.4688    0.0599 O   0  0  0  0  0  0  0  0  0  0  0  0
    1.7014    1.2705   -0.0335 O   0  0  0  0  0  0  0  0  0  0  0  0
    1.8919    2.4375    0.8016 C   0  0  0  0  0  0  0  0  0  0  0  0
    3.2721    2.3517    1.4223 C   0  0  0  0  0  0  0  0  0  0  0  0
   -1.2801   -0.7552   -1.5112 S   0  0  0  0  0  0  0  0  0  0  0  0
   -2.3649   -0.2439    0.2625 P   0  0  0  0  0  0  0  0  0  0  0  0
   -1.6064   -0.3769    2.0673 S   0  0  0  0  0  0  0  0  0  0  0  0
   -3.2805    1.0226   -0.0776 O   0  0  0  0  0  0  0  0  0  0  0  0
   -3.0890    2.3779    0.3228 C   0  0  0  0  0  0  0  0  0  0  0  0
   -3.4863   -1.3764    0.1820 O   0  0  0  0  0  0  0  0  0  0  0  0
   -4.3443   -1.5706   -0.9543 C   0  0  0  0  0  0  0  0  0  0  0  0
    4.2286    1.1714   -1.5757 H   0  0  0  0  0  0  0  0  0  0  0  0
    5.9033    0.6151   -1.7327 H   0  0  0  0  0  0  0  0  0  0  0  0
    4.6561    0.0014   -2.8283 H   0  0  0  0  0  0  0  0  0  0  0  0
    4.7997   -0.5309    0.1919 H   0  0  0  0  0  0  0  0  0  0  0  0
    5.1672   -1.7054   -1.1008 H   0  0  0  0  0  0  0  0  0  0  0  0
    0.4672   -1.6797    0.7620 H   0  0  0  0  0  0  0  0  0  0  0  0
    0.9613   -2.5025   -0.7414 H   0  0  0  0  0  0  0  0  0  0  0  0
    1.7829    3.3215    0.1674 H   0  0  0  0  0  0  0  0  0  0  0  0
    1.1054    2.4426    1.5619 H   0  0  0  0  0  0  0  0  0  0  0  0
    3.3746    1.4126    1.9611 H   0  0  0  0  0  0  0  0  0  0  0  0
    4.0389    2.4045    0.6555 H   0  0  0  0  0  0  0  0  0  0  0  0
    3.4021    3.1757    2.1156 H   0  0  0  0  0  0  0  0  0  0  0  0
   -2.5899    2.4202    1.2909 H   0  0  0  0  0  0  0  0  0  0  0  0
   -4.0872    2.8057    0.3889 H   0  0  0  0  0  0  0  0  0  0  0  0
   -2.4901    2.9000   -0.4209 H   0  0  0  0  0  0  0  0  0  0  0  0
   -3.7464   -1.7658   -1.8449 H   0  0  0  0  0  0  0  0  0  0  0  0
   -4.9662   -0.6903   -1.1059 H   0  0  0  0  0  0  0  0  0  0  0  0
   -4.9534   -2.4357   -0.7046 H   0  0  0  0  0  0  0  0  0  0  0  0
  1  2  1  0  0  0  0
  2  3  1  0  0  0  0
  3  4  1  0  0  0  0
  4  5  2  0  0  0  0
  4  6  1  0  0  0  0
  6  7  1  0  0  0  0
  7  8  1  0  0  0  0
  7  9  1  0  0  0  0
  9 10  2  0  0  0  0
  9 11  4  0  0  0  0
 11 12  1  0  0  0  0
 12 13  1  0  0  0  0
  7 14  1  0  0  0  0
 14 15  1  0  0  0  0
 15 16  2  0  0  0  0
 15 17  2  0  0  0  0
 17 18  1  0  0  0  0
 15 19  1  0  0  0  0
 19 20  1  0  0  0  0
  1 21  1  0  0  0  0
  1 22  1  0  0  0  0
  1 23  1  0  0  0  0
  2 24  1  0  0  0  0
  2 25  1  0  0  0  0
  6 26  1  0  0  0  0
  6 27  1  0  0  0  0
 12 28  1  0  0  0  0
 12 29  1  0  0  0  0
 13 30  1  0  0  0  0
 13 31  1  0  0  0  0
 13 32  1  0  0  0  0
 18 33  1  0  0  0  0
 18 34  1  0  0  0  0
 18 35  1  0  0  0  0
 20 36  1  0  0  0  0
 20 37  1  0  0  0  0
 20 38  1  0  0  0  0
M  END
