 xtb: 6.7.1 (edcfbbe)
          04092505213D

 41 40  0     0  0            999 V2000
    5.2431   -2.4091   -1.4836 C   0  0  0  0  0  0  0  0  0  0  0  0
    4.2017   -1.3163   -1.6147 C   0  0  0  0  0  0  0  0  0  0  0  0
    3.2599   -1.4702   -0.5331 O   0  0  0  0  0  0  0  0  0  0  0  0
    2.3021   -0.2874   -0.0871 P   0  0  0  0  0  0  0  0  0  0  0  0
    3.1776    1.4487    0.1925 S   0  0  0  0  0  0  0  0  0  0  0  0
    1.5725   -0.9225    1.1665 O   0  0  0  0  0  0  0  0  0  0  0  0
    2.0265   -0.6790    2.5146 C   0  0  0  0  0  0  0  0  0  0  0  0
    3.3500   -1.3619    2.7839 C   0  0  0  0  0  0  0  0  0  0  0  0
    0.7646   -0.3333   -1.5341 S   0  0  0  0  0  0  0  0  0  0  0  0
    0.0562    1.2868   -1.1272 C   0  0  0  0  0  0  0  0  0  0  0  0
   -0.6825    1.3405    0.5246 S   0  0  0  0  0  0  0  0  0  0  0  0
   -2.5665    0.4312    0.0757 P   0  0  0  0  0  0  0  0  0  0  0  0
   -3.0877    0.5268   -1.8167 S   0  0  0  0  0  0  0  0  0  0  0  0
   -3.5648    1.1350    1.0755 O   0  0  0  0  0  0  0  0  0  0  0  0
   -4.1579    2.4150    0.7783 C   0  0  0  0  0  0  0  0  0  0  0  0
   -5.5295    2.4600    1.4218 C   0  0  0  0  0  0  0  0  0  0  0  0
   -2.5940   -0.9645    0.8146 O   0  0  0  0  0  0  0  0  0  0  0  0
   -1.7086   -2.0731    0.5810 C   0  0  0  0  0  0  0  0  0  0  0  0
   -1.9422   -2.7301   -0.7651 C   0  0  0  0  0  0  0  0  0  0  0  0
    5.7830   -2.3037   -0.5469 H   0  0  0  0  0  0  0  0  0  0  0  0
    4.7617   -3.3823   -1.5052 H   0  0  0  0  0  0  0  0  0  0  0  0
    5.9424   -2.3348   -2.3098 H   0  0  0  0  0  0  0  0  0  0  0  0
    3.6541   -1.3974   -2.5575 H   0  0  0  0  0  0  0  0  0  0  0  0
    4.6523   -0.3204   -1.5467 H   0  0  0  0  0  0  0  0  0  0  0  0
    2.1068    0.4028    2.6626 H   0  0  0  0  0  0  0  0  0  0  0  0
    1.2257   -1.0778    3.1385 H   0  0  0  0  0  0  0  0  0  0  0  0
    3.2793   -2.4215    2.5534 H   0  0  0  0  0  0  0  0  0  0  0  0
    4.1255   -0.9165    2.1617 H   0  0  0  0  0  0  0  0  0  0  0  0
    3.6174   -1.2330    3.8280 H   0  0  0  0  0  0  0  0  0  0  0  0
   -0.7114    1.4883   -1.8758 H   0  0  0  0  0  0  0  0  0  0  0  0
    0.8445    2.0385   -1.1430 H   0  0  0  0  0  0  0  0  0  0  0  0
   -3.5018    3.1893    1.1844 H   0  0  0  0  0  0  0  0  0  0  0  0
   -4.2265    2.5327   -0.3092 H   0  0  0  0  0  0  0  0  0  0  0  0
   -5.4413    2.2943    2.4915 H   0  0  0  0  0  0  0  0  0  0  0  0
   -5.9761    3.4324    1.2420 H   0  0  0  0  0  0  0  0  0  0  0  0
   -6.1658    1.6881    0.9977 H   0  0  0  0  0  0  0  0  0  0  0  0
   -0.6720   -1.7349    0.6760 H   0  0  0  0  0  0  0  0  0  0  0  0
   -1.9412   -2.7579    1.3990 H   0  0  0  0  0  0  0  0  0  0  0  0
   -1.6663   -2.0567   -1.5747 H   0  0  0  0  0  0  0  0  0  0  0  0
   -1.3335   -3.6259   -0.8345 H   0  0  0  0  0  0  0  0  0  0  0  0
   -2.9906   -2.9960   -0.8751 H   0  0  0  0  0  0  0  0  0  0  0  0
  1  2  1  0  0  0  0
  2  3  1  0  0  0  0
  3  4  2  0  0  0  0
  4  5  2  0  0  0  0
  4  6  2  0  0  0  0
  6  7  1  0  0  0  0
  7  8  1  0  0  0  0
  4  9  1  0  0  0  0
  9 10  1  0  0  0  0
 10 11  1  0  0  0  0
 11 12  1  0  0  0  0
 12 13  2  0  0  0  0
 12 14  2  0  0  0  0
 14 15  1  0  0  0  0
 15 16  1  0  0  0  0
 12 17  2  0  0  0  0
 17 18  1  0  0  0  0
 18 19  1  0  0  0  0
  1 20  1  0  0  0  0
  1 21  1  0  0  0  0
  1 22  1  0  0  0  0
  2 23  1  0  0  0  0
  2 24  1  0  0  0  0
  7 25  1  0  0  0  0
  7 26  1  0  0  0  0
  8 27  1  0  0  0  0
  8 28  1  0  0  0  0
  8 29  1  0  0  0  0
 10 30  1  0  0  0  0
 10 31  1  0  0  0  0
 15 32  1  0  0  0  0
 15 33  1  0  0  0  0
 16 34  1  0  0  0  0
 16 35  1  0  0  0  0
 16 36  1  0  0  0  0
 18 37  1  0  0  0  0
 18 38  1  0  0  0  0
 19 39  1  0  0  0  0
 19 40  1  0  0  0  0
 19 41  1  0  0  0  0
M  END
