 xtb: 6.7.1 (edcfbbe)
          04092505213D

 41 40  0     0  0            999 V2000
    2.8802   -1.4874   -2.9223 C   0  0  0  0  0  0  0  0  0  0  0  0
    3.2266   -0.3936   -1.9320 C   0  0  0  0  0  0  0  0  0  0  0  0
    2.8657   -0.8290   -0.6062 O   0  0  0  0  0  0  0  0  0  0  0  0
    2.1175    0.0373    0.4862 P   0  0  0  0  0  0  0  0  0  0  0  0
    1.4930    1.7972   -0.1545 S   0  0  0  0  0  0  0  0  0  0  0  0
    3.2594    0.1395    1.5877 O   0  0  0  0  0  0  0  0  0  0  0  0
    3.0462    0.2818    3.0038 C   0  0  0  0  0  0  0  0  0  0  0  0
    2.0748    1.3935    3.3435 C   0  0  0  0  0  0  0  0  0  0  0  0
    0.8203   -1.3864    1.3596 S   0  0  0  0  0  0  0  0  0  0  0  0
   -0.0635   -2.0253   -0.1026 C   0  0  0  0  0  0  0  0  0  0  0  0
   -0.3359   -0.8243   -1.4348 S   0  0  0  0  0  0  0  0  0  0  0  0
   -1.8909    0.3147   -0.5950 P   0  0  0  0  0  0  0  0  0  0  0  0
   -2.5426    1.8450   -1.6278 S   0  0  0  0  0  0  0  0  0  0  0  0
   -1.2635    0.6235    0.8257 O   0  0  0  0  0  0  0  0  0  0  0  0
   -1.9330    1.4761    1.7790 C   0  0  0  0  0  0  0  0  0  0  0  0
   -2.6175    0.6400    2.8403 C   0  0  0  0  0  0  0  0  0  0  0  0
   -3.0292   -0.7395   -0.2081 O   0  0  0  0  0  0  0  0  0  0  0  0
   -4.1024   -1.0591   -1.1079 C   0  0  0  0  0  0  0  0  0  0  0  0
   -3.6187   -1.8413   -2.3124 C   0  0  0  0  0  0  0  0  0  0  0  0
    3.2295   -1.1933   -3.9065 H   0  0  0  0  0  0  0  0  0  0  0  0
    3.3637   -2.4152   -2.6310 H   0  0  0  0  0  0  0  0  0  0  0  0
    1.8036   -1.6380   -2.9575 H   0  0  0  0  0  0  0  0  0  0  0  0
    2.6972    0.5388   -2.1583 H   0  0  0  0  0  0  0  0  0  0  0  0
    4.3011   -0.1986   -1.9145 H   0  0  0  0  0  0  0  0  0  0  0  0
    2.6869   -0.6766    3.3896 H   0  0  0  0  0  0  0  0  0  0  0  0
    4.0435    0.4889    3.3957 H   0  0  0  0  0  0  0  0  0  0  0  0
    1.9929    1.4886    4.4214 H   0  0  0  0  0  0  0  0  0  0  0  0
    2.4141    2.3366    2.9205 H   0  0  0  0  0  0  0  0  0  0  0  0
    1.0929    1.1638    2.9296 H   0  0  0  0  0  0  0  0  0  0  0  0
   -1.0197   -2.3963    0.2607 H   0  0  0  0  0  0  0  0  0  0  0  0
    0.5300   -2.8216   -0.5462 H   0  0  0  0  0  0  0  0  0  0  0  0
   -1.1427    2.1016    2.2012 H   0  0  0  0  0  0  0  0  0  0  0  0
   -2.6421    2.1162    1.2434 H   0  0  0  0  0  0  0  0  0  0  0  0
   -1.8947   -0.0186    3.3148 H   0  0  0  0  0  0  0  0  0  0  0  0
   -3.0499    1.2994    3.5859 H   0  0  0  0  0  0  0  0  0  0  0  0
   -3.4038    0.0368    2.3938 H   0  0  0  0  0  0  0  0  0  0  0  0
   -4.7952   -1.6409   -0.4986 H   0  0  0  0  0  0  0  0  0  0  0  0
   -4.5752   -0.1243   -1.4247 H   0  0  0  0  0  0  0  0  0  0  0  0
   -2.9428   -1.2247   -2.9048 H   0  0  0  0  0  0  0  0  0  0  0  0
   -3.0942   -2.7409   -2.0015 H   0  0  0  0  0  0  0  0  0  0  0  0
   -4.4703   -2.1159   -2.9263 H   0  0  0  0  0  0  0  0  0  0  0  0
  1  2  1  0  0  0  0
  2  3  1  0  0  0  0
  3  4  2  0  0  0  0
  4  5  2  0  0  0  0
  4  6  2  0  0  0  0
  6  7  1  0  0  0  0
  7  8  1  0  0  0  0
  4  9  1  0  0  0  0
  9 10  1  0  0  0  0
 10 11  1  0  0  0  0
 11 12  1  0  0  0  0
 12 13  2  0  0  0  0
 12 14  2  0  0  0  0
 14 15  1  0  0  0  0
 15 16  1  0  0  0  0
 12 17  2  0  0  0  0
 17 18  1  0  0  0  0
 18 19  1  0  0  0  0
  1 20  1  0  0  0  0
  1 21  1  0  0  0  0
  1 22  1  0  0  0  0
  2 23  1  0  0  0  0
  2 24  1  0  0  0  0
  7 25  1  0  0  0  0
  7 26  1  0  0  0  0
  8 27  1  0  0  0  0
  8 28  1  0  0  0  0
  8 29  1  0  0  0  0
 10 30  1  0  0  0  0
 10 31  1  0  0  0  0
 15 32  1  0  0  0  0
 15 33  1  0  0  0  0
 16 34  1  0  0  0  0
 16 35  1  0  0  0  0
 16 36  1  0  0  0  0
 18 37  1  0  0  0  0
 18 38  1  0  0  0  0
 19 39  1  0  0  0  0
 19 40  1  0  0  0  0
 19 41  1  0  0  0  0
M  END
