 xtb: 6.7.1 (edcfbbe)
          04092505213D

 41 40  0     0  0            999 V2000
    1.7686   -3.0368   -1.2799 C   0  0  0  0  0  0  0  0  0  0  0  0
    3.0807   -2.6519   -0.6315 C   0  0  0  0  0  0  0  0  0  0  0  0
    3.3566   -1.2319   -0.7252 O   0  0  0  0  0  0  0  0  0  0  0  0
    2.4298   -0.0777   -0.1777 P   0  0  0  0  0  0  0  0  0  0  0  0
    3.4163    1.5672    0.1978 S   0  0  0  0  0  0  0  0  0  0  0  0
    1.7026   -0.7452    1.0740 O   0  0  0  0  0  0  0  0  0  0  0  0
    1.4892   -0.0949    2.3385 C   0  0  0  0  0  0  0  0  0  0  0  0
    2.3729   -0.7358    3.3903 C   0  0  0  0  0  0  0  0  0  0  0  0
    0.9614    0.1140   -1.7138 S   0  0  0  0  0  0  0  0  0  0  0  0
    0.3951    1.7771   -1.2991 C   0  0  0  0  0  0  0  0  0  0  0  0
   -0.4223    1.8469    0.3182 S   0  0  0  0  0  0  0  0  0  0  0  0
   -1.9290    0.4166   -0.1038 P   0  0  0  0  0  0  0  0  0  0  0  0
   -2.6692    0.5195   -1.9216 S   0  0  0  0  0  0  0  0  0  0  0  0
   -2.9942    0.6229    1.0551 O   0  0  0  0  0  0  0  0  0  0  0  0
   -4.0652    1.5840    0.9684 C   0  0  0  0  0  0  0  0  0  0  0  0
   -5.2623    1.0290    1.7146 C   0  0  0  0  0  0  0  0  0  0  0  0
   -1.2047   -0.9081    0.3703 O   0  0  0  0  0  0  0  0  0  0  0  0
   -1.8885   -2.1332    0.7229 C   0  0  0  0  0  0  0  0  0  0  0  0
   -2.5578   -2.7797   -0.4717 C   0  0  0  0  0  0  0  0  0  0  0  0
    1.7429   -2.7032   -2.3150 H   0  0  0  0  0  0  0  0  0  0  0  0
    1.6577   -4.1164   -1.2477 H   0  0  0  0  0  0  0  0  0  0  0  0
    0.9395   -2.5758   -0.7461 H   0  0  0  0  0  0  0  0  0  0  0  0
    3.9321   -3.1028   -1.1434 H   0  0  0  0  0  0  0  0  0  0  0  0
    3.0897   -2.9304    0.4242 H   0  0  0  0  0  0  0  0  0  0  0  0
    1.7154    0.9717    2.2403 H   0  0  0  0  0  0  0  0  0  0  0  0
    0.4287   -0.2208    2.5666 H   0  0  0  0  0  0  0  0  0  0  0  0
    2.1722   -1.8014    3.4564 H   0  0  0  0  0  0  0  0  0  0  0  0
    3.4195   -0.5856    3.1333 H   0  0  0  0  0  0  0  0  0  0  0  0
    2.1744   -0.2720    4.3510 H   0  0  0  0  0  0  0  0  0  0  0  0
   -0.3079    2.0701   -2.0781 H   0  0  0  0  0  0  0  0  0  0  0  0
    1.2448    2.4580   -1.2473 H   0  0  0  0  0  0  0  0  0  0  0  0
   -3.7111    2.5152    1.4162 H   0  0  0  0  0  0  0  0  0  0  0  0
   -4.2980    1.7555   -0.0880 H   0  0  0  0  0  0  0  0  0  0  0  0
   -4.9935    0.8193    2.7459 H   0  0  0  0  0  0  0  0  0  0  0  0
   -6.0626    1.7613    1.6946 H   0  0  0  0  0  0  0  0  0  0  0  0
   -5.6072    0.1122    1.2442 H   0  0  0  0  0  0  0  0  0  0  0  0
   -1.0901   -2.7616    1.1224 H   0  0  0  0  0  0  0  0  0  0  0  0
   -2.6135   -1.9095    1.5084 H   0  0  0  0  0  0  0  0  0  0  0  0
   -2.9723   -3.7385   -0.1766 H   0  0  0  0  0  0  0  0  0  0  0  0
   -3.3597   -2.1448   -0.8449 H   0  0  0  0  0  0  0  0  0  0  0  0
   -1.8390   -2.9290   -1.2742 H   0  0  0  0  0  0  0  0  0  0  0  0
  1  2  1  0  0  0  0
  2  3  1  0  0  0  0
  3  4  2  0  0  0  0
  4  5  2  0  0  0  0
  4  6  2  0  0  0  0
  6  7  1  0  0  0  0
  7  8  1  0  0  0  0
  4  9  1  0  0  0  0
  9 10  1  0  0  0  0
 10 11  1  0  0  0  0
 11 12  1  0  0  0  0
 12 13  2  0  0  0  0
 12 14  2  0  0  0  0
 14 15  1  0  0  0  0
 15 16  1  0  0  0  0
 12 17  2  0  0  0  0
 17 18  1  0  0  0  0
 18 19  1  0  0  0  0
  1 20  1  0  0  0  0
  1 21  1  0  0  0  0
  1 22  1  0  0  0  0
  2 23  1  0  0  0  0
  2 24  1  0  0  0  0
  7 25  1  0  0  0  0
  7 26  1  0  0  0  0
  8 27  1  0  0  0  0
  8 28  1  0  0  0  0
  8 29  1  0  0  0  0
 10 30  1  0  0  0  0
 10 31  1  0  0  0  0
 15 32  1  0  0  0  0
 15 33  1  0  0  0  0
 16 34  1  0  0  0  0
 16 35  1  0  0  0  0
 16 36  1  0  0  0  0
 18 37  1  0  0  0  0
 18 38  1  0  0  0  0
 19 39  1  0  0  0  0
 19 40  1  0  0  0  0
 19 41  1  0  0  0  0
M  END
