 xtb: 6.7.1 (edcfbbe)
          04092507313D

 38 37  0     0  0            999 V2000
    5.0728   -0.1969   -0.7368 C   0  0  0  0  0  0  0  0  0  0  0  0
    4.2181   -0.8373    0.3448 C   0  0  0  0  0  0  0  0  0  0  0  0
    2.8202   -0.7774   -0.0074 O   0  0  0  0  0  0  0  0  0  0  0  0
    2.3138   -1.7536   -0.7446 C   0  0  0  0  0  0  0  0  0  0  0  0
    2.9366   -2.7224   -1.1130 O   0  0  0  0  0  0  0  0  0  0  0  0
    0.8456   -1.5372   -1.0399 C   0  0  0  0  0  0  0  0  0  0  0  0
    0.4908   -0.0720   -1.2641 C   0  0  0  0  0  0  0  0  0  0  0  0
    0.9537    0.3253   -2.1687 H   0  0  0  0  0  0  0  0  0  0  0  0
    0.8354    0.8063   -0.0801 C   0  0  0  0  0  0  0  0  0  0  0  0
    0.3250    0.6508    1.0111 O   0  0  0  0  0  0  0  0  0  0  0  0
    1.6698    1.7617   -0.3946 O   0  0  0  0  0  0  0  0  0  0  0  0
    2.0455    2.7026    0.6348 C   0  0  0  0  0  0  0  0  0  0  0  0
    0.9644    3.7515    0.8381 C   0  0  0  0  0  0  0  0  0  0  0  0
   -1.3064    0.1363   -1.5014 S   0  0  0  0  0  0  0  0  0  0  0  0
   -2.1247   -0.1757    0.4515 P   0  0  0  0  0  0  0  0  0  0  0  0
   -1.5837   -1.6996    1.5622 S   0  0  0  0  0  0  0  0  0  0  0  0
   -2.2195    1.2237    1.1880 O   0  0  0  0  0  0  0  0  0  0  0  0
   -2.9153    2.3446    0.6071 C   0  0  0  0  0  0  0  0  0  0  0  0
   -3.6594   -0.3145   -0.0059 O   0  0  0  0  0  0  0  0  0  0  0  0
   -4.1517   -1.5011   -0.6330 C   0  0  0  0  0  0  0  0  0  0  0  0
    5.0068   -0.7760   -1.6548 H   0  0  0  0  0  0  0  0  0  0  0  0
    4.7329    0.8167   -0.9314 H   0  0  0  0  0  0  0  0  0  0  0  0
    6.1063   -0.1737   -0.4077 H   0  0  0  0  0  0  0  0  0  0  0  0
    4.2867   -0.2926    1.2869 H   0  0  0  0  0  0  0  0  0  0  0  0
    4.4936   -1.8851    0.4925 H   0  0  0  0  0  0  0  0  0  0  0  0
    0.2963   -1.9192   -0.1698 H   0  0  0  0  0  0  0  0  0  0  0  0
    0.5688   -2.1346   -1.9087 H   0  0  0  0  0  0  0  0  0  0  0  0
    2.2265    2.1485    1.5597 H   0  0  0  0  0  0  0  0  0  0  0  0
    2.9698    3.1463    0.2658 H   0  0  0  0  0  0  0  0  0  0  0  0
    0.7380    4.2451   -0.1030 H   0  0  0  0  0  0  0  0  0  0  0  0
    0.0614    3.2837    1.2247 H   0  0  0  0  0  0  0  0  0  0  0  0
    1.3114    4.4879    1.5552 H   0  0  0  0  0  0  0  0  0  0  0  0
   -3.9838    2.1409    0.5793 H   0  0  0  0  0  0  0  0  0  0  0  0
   -2.5478    2.5350   -0.4019 H   0  0  0  0  0  0  0  0  0  0  0  0
   -2.6995    3.1841    1.2635 H   0  0  0  0  0  0  0  0  0  0  0  0
   -3.8388   -1.5248   -1.6763 H   0  0  0  0  0  0  0  0  0  0  0  0
   -5.2347   -1.4463   -0.5585 H   0  0  0  0  0  0  0  0  0  0  0  0
   -3.7786   -2.3837   -0.1104 H   0  0  0  0  0  0  0  0  0  0  0  0
  1  2  1  0  0  0  0
  2  3  1  0  0  0  0
  3  4  1  0  0  0  0
  4  5  2  0  0  0  0
  4  6  1  0  0  0  0
  6  7  1  0  0  0  0
  7  8  1  0  0  0  0
  7  9  1  0  0  0  0
  9 10  2  0  0  0  0
  9 11  4  0  0  0  0
 11 12  1  0  0  0  0
 12 13  1  0  0  0  0
  7 14  1  0  0  0  0
 14 15  1  0  0  0  0
 15 16  2  0  0  0  0
 15 17  2  0  0  0  0
 17 18  1  0  0  0  0
 15 19  1  0  0  0  0
 19 20  1  0  0  0  0
  1 21  1  0  0  0  0
  1 22  1  0  0  0  0
  1 23  1  0  0  0  0
  2 24  1  0  0  0  0
  2 25  1  0  0  0  0
  6 26  1  0  0  0  0
  6 27  1  0  0  0  0
 12 28  1  0  0  0  0
 12 29  1  0  0  0  0
 13 30  1  0  0  0  0
 13 31  1  0  0  0  0
 13 32  1  0  0  0  0
 18 33  1  0  0  0  0
 18 34  1  0  0  0  0
 18 35  1  0  0  0  0
 20 36  1  0  0  0  0
 20 37  1  0  0  0  0
 20 38  1  0  0  0  0
M  END
