 xtb: 6.7.1 (edcfbbe)
          04092505213D

 41 40  0     0  0            999 V2000
    1.8980   -2.7627   -1.8657 C   0  0  0  0  0  0  0  0  0  0  0  0
    1.6363   -1.3251   -2.2643 C   0  0  0  0  0  0  0  0  0  0  0  0
    1.2023   -0.5394   -1.1371 O   0  0  0  0  0  0  0  0  0  0  0  0
    2.2301    0.0545   -0.0853 P   0  0  0  0  0  0  0  0  0  0  0  0
    3.9512    0.6306   -0.8213 S   0  0  0  0  0  0  0  0  0  0  0  0
    2.3243   -1.1134    0.9978 O   0  0  0  0  0  0  0  0  0  0  0  0
    3.4539   -1.2418    1.8787 C   0  0  0  0  0  0  0  0  0  0  0  0
    3.4094   -0.2371    3.0128 C   0  0  0  0  0  0  0  0  0  0  0  0
    1.0358    1.5570    0.7798 S   0  0  0  0  0  0  0  0  0  0  0  0
   -0.0981    0.5478    1.8002 C   0  0  0  0  0  0  0  0  0  0  0  0
   -1.0095   -0.7403    0.9278 S   0  0  0  0  0  0  0  0  0  0  0  0
   -2.1936    0.4898   -0.3609 P   0  0  0  0  0  0  0  0  0  0  0  0
   -1.3169    1.3694   -1.8809 S   0  0  0  0  0  0  0  0  0  0  0  0
   -2.8727    1.5914    0.5442 O   0  0  0  0  0  0  0  0  0  0  0  0
   -4.0170    1.4004    1.4157 C   0  0  0  0  0  0  0  0  0  0  0  0
   -3.6259    0.8706    2.7809 C   0  0  0  0  0  0  0  0  0  0  0  0
   -3.4149   -0.4661   -0.7101 O   0  0  0  0  0  0  0  0  0  0  0  0
   -3.2961   -1.8451   -1.1057 C   0  0  0  0  0  0  0  0  0  0  0  0
   -2.3360   -2.0399   -2.2595 C   0  0  0  0  0  0  0  0  0  0  0  0
    2.7644   -2.8141   -1.2092 H   0  0  0  0  0  0  0  0  0  0  0  0
    1.0359   -3.1697   -1.3436 H   0  0  0  0  0  0  0  0  0  0  0  0
    2.0926   -3.3494   -2.7578 H   0  0  0  0  0  0  0  0  0  0  0  0
    0.8177   -1.2364   -2.9814 H   0  0  0  0  0  0  0  0  0  0  0  0
    2.5357   -0.8616   -2.6843 H   0  0  0  0  0  0  0  0  0  0  0  0
    3.3912   -2.2676    2.2438 H   0  0  0  0  0  0  0  0  0  0  0  0
    4.3667   -1.1080    1.2891 H   0  0  0  0  0  0  0  0  0  0  0  0
    4.2931   -0.3596    3.6310 H   0  0  0  0  0  0  0  0  0  0  0  0
    3.4019    0.7755    2.6096 H   0  0  0  0  0  0  0  0  0  0  0  0
    2.5253   -0.3840    3.6272 H   0  0  0  0  0  0  0  0  0  0  0  0
   -0.7884    1.2710    2.2285 H   0  0  0  0  0  0  0  0  0  0  0  0
    0.4668    0.0361    2.5749 H   0  0  0  0  0  0  0  0  0  0  0  0
   -4.4479    2.4004    1.4863 H   0  0  0  0  0  0  0  0  0  0  0  0
   -4.7207    0.7307    0.9200 H   0  0  0  0  0  0  0  0  0  0  0  0
   -3.1775   -0.1166    2.6987 H   0  0  0  0  0  0  0  0  0  0  0  0
   -2.9258    1.5453    3.2667 H   0  0  0  0  0  0  0  0  0  0  0  0
   -4.5206    0.7991    3.3920 H   0  0  0  0  0  0  0  0  0  0  0  0
   -2.9732   -2.4214   -0.2340 H   0  0  0  0  0  0  0  0  0  0  0  0
   -4.3150   -2.1235   -1.3807 H   0  0  0  0  0  0  0  0  0  0  0  0
   -2.6341   -1.4302   -3.1094 H   0  0  0  0  0  0  0  0  0  0  0  0
   -1.3338   -1.7384   -1.9574 H   0  0  0  0  0  0  0  0  0  0  0  0
   -2.3221   -3.0853   -2.5503 H   0  0  0  0  0  0  0  0  0  0  0  0
  1  2  1  0  0  0  0
  2  3  1  0  0  0  0
  3  4  2  0  0  0  0
  4  5  2  0  0  0  0
  4  6  2  0  0  0  0
  6  7  1  0  0  0  0
  7  8  1  0  0  0  0
  4  9  1  0  0  0  0
  9 10  1  0  0  0  0
 10 11  1  0  0  0  0
 11 12  1  0  0  0  0
 12 13  2  0  0  0  0
 12 14  2  0  0  0  0
 14 15  1  0  0  0  0
 15 16  1  0  0  0  0
 12 17  2  0  0  0  0
 17 18  1  0  0  0  0
 18 19  1  0  0  0  0
  1 20  1  0  0  0  0
  1 21  1  0  0  0  0
  1 22  1  0  0  0  0
  2 23  1  0  0  0  0
  2 24  1  0  0  0  0
  7 25  1  0  0  0  0
  7 26  1  0  0  0  0
  8 27  1  0  0  0  0
  8 28  1  0  0  0  0
  8 29  1  0  0  0  0
 10 30  1  0  0  0  0
 10 31  1  0  0  0  0
 15 32  1  0  0  0  0
 15 33  1  0  0  0  0
 16 34  1  0  0  0  0
 16 35  1  0  0  0  0
 16 36  1  0  0  0  0
 18 37  1  0  0  0  0
 18 38  1  0  0  0  0
 19 39  1  0  0  0  0
 19 40  1  0  0  0  0
 19 41  1  0  0  0  0
M  END
