 xtb: 6.7.1 (edcfbbe)
          04092505203D

 41 40  0     0  0            999 V2000
    3.1101    2.2686   -1.9068 C   0  0  0  0  0  0  0  0  0  0  0  0
    3.8621    1.9618   -0.6272 C   0  0  0  0  0  0  0  0  0  0  0  0
    3.6683    0.6012   -0.2102 O   0  0  0  0  0  0  0  0  0  0  0  0
    2.2962    0.0933    0.4166 P   0  0  0  0  0  0  0  0  0  0  0  0
    1.5148    1.3758    1.6797 S   0  0  0  0  0  0  0  0  0  0  0  0
    2.7323   -1.3019    1.0185 O   0  0  0  0  0  0  0  0  0  0  0  0
    2.8469   -1.5658    2.4358 C   0  0  0  0  0  0  0  0  0  0  0  0
    1.7632   -2.5308    2.8743 C   0  0  0  0  0  0  0  0  0  0  0  0
    1.2087   -0.5528   -1.2883 S   0  0  0  0  0  0  0  0  0  0  0  0
    0.1420   -1.7857   -0.4900 C   0  0  0  0  0  0  0  0  0  0  0  0
   -1.0066   -1.0801    0.7165 S   0  0  0  0  0  0  0  0  0  0  0  0
   -2.2353   -0.0573   -0.6964 P   0  0  0  0  0  0  0  0  0  0  0  0
   -2.4191   -0.9244   -2.4380 S   0  0  0  0  0  0  0  0  0  0  0  0
   -1.6388    1.3978   -0.8151 O   0  0  0  0  0  0  0  0  0  0  0  0
   -1.6645    2.3568    0.2740 C   0  0  0  0  0  0  0  0  0  0  0  0
   -0.8855    3.5747   -0.1725 C   0  0  0  0  0  0  0  0  0  0  0  0
   -3.5867    0.2071    0.0987 O   0  0  0  0  0  0  0  0  0  0  0  0
   -4.6729   -0.7387    0.1169 C   0  0  0  0  0  0  0  0  0  0  0  0
   -4.3127   -2.0192    0.8413 C   0  0  0  0  0  0  0  0  0  0  0  0
    3.3280    3.2841   -2.2217 H   0  0  0  0  0  0  0  0  0  0  0  0
    3.4008    1.5751   -2.6917 H   0  0  0  0  0  0  0  0  0  0  0  0
    2.0364    2.1702   -1.7432 H   0  0  0  0  0  0  0  0  0  0  0  0
    3.5364    2.6228    0.1836 H   0  0  0  0  0  0  0  0  0  0  0  0
    4.9407    2.0480   -0.7643 H   0  0  0  0  0  0  0  0  0  0  0  0
    3.8427   -1.9903    2.5715 H   0  0  0  0  0  0  0  0  0  0  0  0
    2.7708   -0.6210    2.9830 H   0  0  0  0  0  0  0  0  0  0  0  0
    0.7795   -2.0917    2.7125 H   0  0  0  0  0  0  0  0  0  0  0  0
    1.8343   -3.4598    2.3153 H   0  0  0  0  0  0  0  0  0  0  0  0
    1.8855   -2.7421    3.9316 H   0  0  0  0  0  0  0  0  0  0  0  0
    0.7529   -2.5168    0.0326 H   0  0  0  0  0  0  0  0  0  0  0  0
   -0.4273   -2.2449   -1.2994 H   0  0  0  0  0  0  0  0  0  0  0  0
   -2.7070    2.5985    0.4867 H   0  0  0  0  0  0  0  0  0  0  0  0
   -1.2097    1.8989    1.1575 H   0  0  0  0  0  0  0  0  0  0  0  0
   -1.2880    3.9545   -1.1071 H   0  0  0  0  0  0  0  0  0  0  0  0
   -0.9554    4.3386    0.5947 H   0  0  0  0  0  0  0  0  0  0  0  0
    0.1606    3.3167   -0.3150 H   0  0  0  0  0  0  0  0  0  0  0  0
   -5.4739   -0.1996    0.6249 H   0  0  0  0  0  0  0  0  0  0  0  0
   -4.9616   -0.9492   -0.9173 H   0  0  0  0  0  0  0  0  0  0  0  0
   -3.5688   -2.5737    0.2714 H   0  0  0  0  0  0  0  0  0  0  0  0
   -3.9088   -1.7970    1.8259 H   0  0  0  0  0  0  0  0  0  0  0  0
   -5.2025   -2.6317    0.9458 H   0  0  0  0  0  0  0  0  0  0  0  0
  1  2  1  0  0  0  0
  2  3  1  0  0  0  0
  3  4  2  0  0  0  0
  4  5  2  0  0  0  0
  4  6  2  0  0  0  0
  6  7  1  0  0  0  0
  7  8  1  0  0  0  0
  4  9  1  0  0  0  0
  9 10  1  0  0  0  0
 10 11  1  0  0  0  0
 11 12  1  0  0  0  0
 12 13  2  0  0  0  0
 12 14  2  0  0  0  0
 14 15  1  0  0  0  0
 15 16  1  0  0  0  0
 12 17  2  0  0  0  0
 17 18  1  0  0  0  0
 18 19  1  0  0  0  0
  1 20  1  0  0  0  0
  1 21  1  0  0  0  0
  1 22  1  0  0  0  0
  2 23  1  0  0  0  0
  2 24  1  0  0  0  0
  7 25  1  0  0  0  0
  7 26  1  0  0  0  0
  8 27  1  0  0  0  0
  8 28  1  0  0  0  0
  8 29  1  0  0  0  0
 10 30  1  0  0  0  0
 10 31  1  0  0  0  0
 15 32  1  0  0  0  0
 15 33  1  0  0  0  0
 16 34  1  0  0  0  0
 16 35  1  0  0  0  0
 16 36  1  0  0  0  0
 18 37  1  0  0  0  0
 18 38  1  0  0  0  0
 19 39  1  0  0  0  0
 19 40  1  0  0  0  0
 19 41  1  0  0  0  0
M  END
