41
 xtb: 6.7.1 (edcfbbe)
C            2.67384100260934       -2.98679769001237       -1.15474436727783
C            3.43387270850053       -1.83609587007573       -1.76893833641373
O            3.69346288899590       -0.72297722073569       -0.83490164943673
P            2.55230187376661        0.16310304375646       -0.12789393530873
S            3.33439745483188        1.72686981360878        0.73068707390416
O            1.70370138117922       -0.81641708983629        0.82140857683035
C            2.23084459215394       -1.26928682807938        2.11889828183970
C            1.31226823709952       -0.78093160637024        3.20976522153737
S            1.15211078576836        0.50759394514082       -1.68448420357428
C            0.26522719919987        1.97647465584545       -1.02742579653586
S           -0.74136452898975        1.77707753615477        0.49469720453819
P           -2.14816476789430        0.32790531744886       -0.14510419099794
S           -2.82155037612611        0.51528696159166       -1.96280845764743
O           -3.22364083320111        0.38778855849790        1.05321338008904
C           -4.46895118193771        1.16483620988131        0.97433438794011
C           -4.24106366354247        2.63039877904896        1.24820141210390
O           -1.37060786832045       -1.02962169667337        0.21532292971922
C           -1.69315714094566       -2.31091044151102       -0.42630547105308
C           -2.99740153973856       -2.87811914459771        0.07772799583091
H            3.15090318991203       -3.32091377192603       -0.22878578494915
H            1.62912258645682       -2.73747724129751       -0.95222926220497
H            2.69231937630413       -3.81696629909377       -1.86866713463078
H            2.92763528483494       -1.43087228029437       -2.65152325313804
H            4.43931459100169       -2.14247063713634       -2.06347652370668
H            2.25119084286688       -2.36066551523077        2.05826863258213
H            3.25326838290417       -0.90228505183648        2.25237004212080
H            1.31612889856436        0.31134030889682        3.26408971152795
H            0.28810239190427       -1.12494435986343        3.03545956217398
H            1.65251947811193       -1.17909287943630        4.17119124568276
H           -0.37900195338961        2.29909173597437       -1.85041950109065
H            0.98588016029004        2.76605634888503       -0.79618861352263
H           -4.91747915137869        0.99602975981381       -0.00923815023071
H           -5.10183508922414        0.70731105966848        1.73739716050319
H           -3.64568079010041        3.10106729642449        0.46088884782777
H           -5.21403764503387        3.13141877429081        1.28490088586327
H           -3.74184350814513        2.77716678848797        2.21049026872738
H           -1.69954209754209       -2.16090843795275       -1.51046186842205
H           -0.84635390014060       -2.94753289242082       -0.16019931698967
H           -3.14146253709185       -3.87095768373440       -0.36105298312204
H           -2.98438159408781       -2.98024130158818        1.16661854414014
H           -3.84724214137065       -2.25268341239676       -0.21216020950722
