 xtb: 6.7.1 (edcfbbe)
          04092505213D

 41 40  0     0  0            999 V2000
    3.7706   -1.1207   -2.0443 C   0  0  0  0  0  0  0  0  0  0  0  0
    2.7215   -0.0482   -2.2484 C   0  0  0  0  0  0  0  0  0  0  0  0
    2.4559    0.7135   -1.0470 O   0  0  0  0  0  0  0  0  0  0  0  0
    1.9803    0.1293    0.3467 P   0  0  0  0  0  0  0  0  0  0  0  0
    1.1206    1.5157    1.4310 S   0  0  0  0  0  0  0  0  0  0  0  0
    3.2898   -0.4569    1.0620 O   0  0  0  0  0  0  0  0  0  0  0  0
    4.3108    0.4317    1.5535 C   0  0  0  0  0  0  0  0  0  0  0  0
    5.3763   -0.4147    2.2189 C   0  0  0  0  0  0  0  0  0  0  0  0
    1.0027   -1.7065    0.0569 S   0  0  0  0  0  0  0  0  0  0  0  0
   -0.3305   -1.5172    1.2847 C   0  0  0  0  0  0  0  0  0  0  0  0
   -1.9899   -1.5709    0.5632 S   0  0  0  0  0  0  0  0  0  0  0  0
   -2.0439    0.3220   -0.4094 P   0  0  0  0  0  0  0  0  0  0  0  0
   -0.6867    0.7282   -1.7598 S   0  0  0  0  0  0  0  0  0  0  0  0
   -2.0415    1.3842    0.7521 O   0  0  0  0  0  0  0  0  0  0  0  0
   -2.9390    1.3795    1.8891 C   0  0  0  0  0  0  0  0  0  0  0  0
   -4.1669    2.2229    1.6154 C   0  0  0  0  0  0  0  0  0  0  0  0
   -3.5352    0.3715   -0.9546 O   0  0  0  0  0  0  0  0  0  0  0  0
   -3.9073   -0.1466   -2.2455 C   0  0  0  0  0  0  0  0  0  0  0  0
   -3.7269   -1.6476   -2.3368 C   0  0  0  0  0  0  0  0  0  0  0  0
    4.6974   -0.6816   -1.6828 H   0  0  0  0  0  0  0  0  0  0  0  0
    3.4223   -1.8601   -1.3244 H   0  0  0  0  0  0  0  0  0  0  0  0
    3.9554   -1.6140   -2.9934 H   0  0  0  0  0  0  0  0  0  0  0  0
    1.7745   -0.4733   -2.5916 H   0  0  0  0  0  0  0  0  0  0  0  0
    3.0503    0.7149   -2.9557 H   0  0  0  0  0  0  0  0  0  0  0  0
    4.7144    1.0040    0.7119 H   0  0  0  0  0  0  0  0  0  0  0  0
    3.8493    1.1308    2.2593 H   0  0  0  0  0  0  0  0  0  0  0  0
    6.1573    0.2330    2.6035 H   0  0  0  0  0  0  0  0  0  0  0  0
    4.9400   -0.9797    3.0373 H   0  0  0  0  0  0  0  0  0  0  0  0
    5.8022   -1.1093    1.5008 H   0  0  0  0  0  0  0  0  0  0  0  0
   -0.1829   -0.5687    1.8093 H   0  0  0  0  0  0  0  0  0  0  0  0
   -0.2787   -2.3626    1.9655 H   0  0  0  0  0  0  0  0  0  0  0  0
   -3.2142    0.3464    2.1200 H   0  0  0  0  0  0  0  0  0  0  0  0
   -2.3376    1.7968    2.6997 H   0  0  0  0  0  0  0  0  0  0  0  0
   -4.7715    2.2673    2.5158 H   0  0  0  0  0  0  0  0  0  0  0  0
   -3.8708    3.2293    1.3318 H   0  0  0  0  0  0  0  0  0  0  0  0
   -4.7516    1.7877    0.8095 H   0  0  0  0  0  0  0  0  0  0  0  0
   -4.9544    0.1418   -2.3477 H   0  0  0  0  0  0  0  0  0  0  0  0
   -3.3046    0.3607   -3.0049 H   0  0  0  0  0  0  0  0  0  0  0  0
   -4.2323   -2.1417   -1.5108 H   0  0  0  0  0  0  0  0  0  0  0  0
   -4.1388   -2.0007   -3.2767 H   0  0  0  0  0  0  0  0  0  0  0  0
   -2.6673   -1.8971   -2.3011 H   0  0  0  0  0  0  0  0  0  0  0  0
  1  2  1  0  0  0  0
  2  3  1  0  0  0  0
  3  4  2  0  0  0  0
  4  5  2  0  0  0  0
  4  6  1  0  0  0  0
  6  7  1  0  0  0  0
  7  8  1  0  0  0  0
  4  9  1  0  0  0  0
  9 10  1  0  0  0  0
 10 11  1  0  0  0  0
 11 12  1  0  0  0  0
 12 13  2  0  0  0  0
 12 14  2  0  0  0  0
 14 15  1  0  0  0  0
 15 16  1  0  0  0  0
 12 17  2  0  0  0  0
 17 18  1  0  0  0  0
 18 19  1  0  0  0  0
  1 20  1  0  0  0  0
  1 21  1  0  0  0  0
  1 22  1  0  0  0  0
  2 23  1  0  0  0  0
  2 24  1  0  0  0  0
  7 25  1  0  0  0  0
  7 26  1  0  0  0  0
  8 27  1  0  0  0  0
  8 28  1  0  0  0  0
  8 29  1  0  0  0  0
 10 30  1  0  0  0  0
 10 31  1  0  0  0  0
 15 32  1  0  0  0  0
 15 33  1  0  0  0  0
 16 34  1  0  0  0  0
 16 35  1  0  0  0  0
 16 36  1  0  0  0  0
 18 37  1  0  0  0  0
 18 38  1  0  0  0  0
 19 39  1  0  0  0  0
 19 40  1  0  0  0  0
 19 41  1  0  0  0  0
M  END
