41
 xtb: 6.7.1 (edcfbbe)
C            5.59091821130271       -0.85639876821194       -0.27845912752281
C            4.33362111712805       -1.45057522582458       -0.86132985337117
O            3.42472252438382       -0.42342991272928       -1.40604155143429
P            2.69945422206711        0.69042683452058       -0.51045243342635
S            3.53247884723446        2.44503282675697       -0.36179928485497
O            2.47172774911894       -0.12523634735388        0.85769266965087
C            1.85542051785047        0.53137311803929        2.01656736822362
C            1.79199313893071       -0.48444120012582        3.12627194464849
S            0.83428021634594        0.92100347390849       -1.45681246855533
C            0.22601479584118       -0.81612487912989       -1.53363779377093
S           -0.58759240076936       -1.49075058079979       -0.03197248966789
P           -2.31092608230866       -0.26626843005779        0.07677292083287
S           -3.04006725179357        0.35651918449207       -1.61977411704775
O           -1.80555035787578        0.85241241126333        1.11102207665639
C           -2.67003528221664        1.99720502502190        1.45625934459912
C           -1.93715372931707        3.26833700990032        1.11427419140943
O           -3.29447538570108       -1.12756391254432        1.01797853970910
C           -4.36523476762907       -1.98167385555676        0.48430277008019
C           -3.83688728240877       -3.28404478333485       -0.06272686295521
H            6.10169389663811       -0.22314180038049       -1.00919951823363
H            5.38465569803705       -0.26998883664096        0.62149374196961
H            6.26317740726054       -1.67536255296006       -0.00240362103135
H            3.77826920433744       -2.04383191795230       -0.13067579327671
H            4.55133396019905       -2.07164120543159       -1.73227301726887
H            2.47260089728760        1.39325757465931        2.28868576733764
H            0.85792114761485        0.87736409685815        1.72500295342103
H            1.17731972217291       -1.34251061846417        2.84051305018867
H            2.79322434677117       -0.83421279345109        3.39346118048063
H            1.34364935363367       -0.01591007616066        4.00759524018478
H            1.06081122205870       -1.49096129159550       -1.74549082773294
H           -0.48037756895522       -0.84881336107587       -2.36746948732090
H           -3.61849346221126        1.91893237859346        0.91610162517591
H           -2.86282115303816        1.90653879490232        2.52814999536568
H           -1.76184441419665        3.33980401629451        0.03694831653644
H           -2.54172065253967        4.12604308494601        1.42597221225697
H           -0.97637342998613        3.31502175058628        1.63561460609087
H           -5.01415565456126       -2.14227505203554        1.34752545608481
H           -4.91207822642752       -1.41127698669404       -0.27231263719171
H           -3.24430018004499       -3.81482401175920        0.68804133936954
H           -4.68894214029597       -3.91425923338089       -0.33798706600489
H           -3.22585490960941       -3.12938011970319       -0.95642016308615
