 xtb: 6.7.1 (edcfbbe)
          04092505203D

 41 40  0     0  0            999 V2000
    4.7413    0.6211   -1.7372 C   0  0  0  0  0  0  0  0  0  0  0  0
    4.6041    1.1223   -0.3145 C   0  0  0  0  0  0  0  0  0  0  0  0
    3.6280    0.3787    0.4369 O   0  0  0  0  0  0  0  0  0  0  0  0
    2.0748    0.4294    0.1061 P   0  0  0  0  0  0  0  0  0  0  0  0
    1.3888    2.1867   -0.4157 S   0  0  0  0  0  0  0  0  0  0  0  0
    1.4322   -0.1052    1.4489 O   0  0  0  0  0  0  0  0  0  0  0  0
    2.0387   -1.0510    2.3625 C   0  0  0  0  0  0  0  0  0  0  0  0
    2.2903   -2.4053    1.7336 C   0  0  0  0  0  0  0  0  0  0  0  0
    1.8091   -1.0846   -1.3710 S   0  0  0  0  0  0  0  0  0  0  0  0
    0.0376   -0.8849   -1.6196 C   0  0  0  0  0  0  0  0  0  0  0  0
   -0.9454   -1.7899   -0.3562 S   0  0  0  0  0  0  0  0  0  0  0  0
   -2.2286   -0.2504    0.2641 P   0  0  0  0  0  0  0  0  0  0  0  0
   -3.6344   -0.7179    1.5425 S   0  0  0  0  0  0  0  0  0  0  0  0
   -2.7452    0.4421   -1.0806 O   0  0  0  0  0  0  0  0  0  0  0  0
   -3.9818    0.0540   -1.7026 C   0  0  0  0  0  0  0  0  0  0  0  0
   -3.8830   -1.3073   -2.3612 C   0  0  0  0  0  0  0  0  0  0  0  0
   -1.1472    0.7928    0.7728 O   0  0  0  0  0  0  0  0  0  0  0  0
   -1.4957    1.8887    1.6389 C   0  0  0  0  0  0  0  0  0  0  0  0
   -2.2201    2.9878    0.8920 C   0  0  0  0  0  0  0  0  0  0  0  0
    5.5791    1.1218   -2.2118 H   0  0  0  0  0  0  0  0  0  0  0  0
    4.9088   -0.4528   -1.7480 H   0  0  0  0  0  0  0  0  0  0  0  0
    3.8353    0.8404   -2.2995 H   0  0  0  0  0  0  0  0  0  0  0  0
    4.3164    2.1782   -0.3048 H   0  0  0  0  0  0  0  0  0  0  0  0
    5.5259    0.9832    0.2524 H   0  0  0  0  0  0  0  0  0  0  0  0
    2.9673   -0.6141    2.7348 H   0  0  0  0  0  0  0  0  0  0  0  0
    1.3076   -1.1163    3.1705 H   0  0  0  0  0  0  0  0  0  0  0  0
    3.0477   -2.3297    0.9564 H   0  0  0  0  0  0  0  0  0  0  0  0
    2.6404   -3.0872    2.5025 H   0  0  0  0  0  0  0  0  0  0  0  0
    1.3744   -2.8013    1.2993 H   0  0  0  0  0  0  0  0  0  0  0  0
   -0.1879   -1.3196   -2.5893 H   0  0  0  0  0  0  0  0  0  0  0  0
   -0.2191    0.1736   -1.5792 H   0  0  0  0  0  0  0  0  0  0  0  0
   -4.7663    0.0537   -0.9389 H   0  0  0  0  0  0  0  0  0  0  0  0
   -4.1705    0.8439   -2.4309 H   0  0  0  0  0  0  0  0  0  0  0  0
   -3.0735   -1.3226   -3.0863 H   0  0  0  0  0  0  0  0  0  0  0  0
   -3.6996   -2.0726   -1.6073 H   0  0  0  0  0  0  0  0  0  0  0  0
   -4.8186   -1.5283   -2.8649 H   0  0  0  0  0  0  0  0  0  0  0  0
   -2.1081    1.4981    2.4584 H   0  0  0  0  0  0  0  0  0  0  0  0
   -0.5337    2.2330    2.0228 H   0  0  0  0  0  0  0  0  0  0  0  0
   -1.6240    3.3092    0.0408 H   0  0  0  0  0  0  0  0  0  0  0  0
   -3.1846    2.6274    0.5387 H   0  0  0  0  0  0  0  0  0  0  0  0
   -2.3769    3.8293    1.5594 H   0  0  0  0  0  0  0  0  0  0  0  0
  1  2  1  0  0  0  0
  2  3  1  0  0  0  0
  3  4  2  0  0  0  0
  4  5  2  0  0  0  0
  4  6  2  0  0  0  0
  6  7  1  0  0  0  0
  7  8  1  0  0  0  0
  4  9  1  0  0  0  0
  9 10  1  0  0  0  0
 10 11  1  0  0  0  0
 11 12  1  0  0  0  0
 12 13  2  0  0  0  0
 12 14  1  0  0  0  0
 14 15  1  0  0  0  0
 15 16  1  0  0  0  0
 12 17  2  0  0  0  0
 17 18  1  0  0  0  0
 18 19  1  0  0  0  0
  1 20  1  0  0  0  0
  1 21  1  0  0  0  0
  1 22  1  0  0  0  0
  2 23  1  0  0  0  0
  2 24  1  0  0  0  0
  7 25  1  0  0  0  0
  7 26  1  0  0  0  0
  8 27  1  0  0  0  0
  8 28  1  0  0  0  0
  8 29  1  0  0  0  0
 10 30  1  0  0  0  0
 10 31  1  0  0  0  0
 15 32  1  0  0  0  0
 15 33  1  0  0  0  0
 16 34  1  0  0  0  0
 16 35  1  0  0  0  0
 16 36  1  0  0  0  0
 18 37  1  0  0  0  0
 18 38  1  0  0  0  0
 19 39  1  0  0  0  0
 19 40  1  0  0  0  0
 19 41  1  0  0  0  0
M  END
