21
 xtb: 6.7.1 (edcfbbe)
C           -3.07995517313427       -0.38337508957999       -0.00353899161977
C           -1.61361992859135       -0.05270339253985        0.00382675230669
C           -1.17899178688401        1.27923598010063        0.00229793128541
C            0.17562891315015        1.57055896540312       -0.00087103294753
C            1.15792334164040        0.56619076733672       -0.00166280328494
C            0.73530339520800       -0.77278406739342       -0.00056367922198
C           -0.64282017473161       -1.04839426827096        0.00261453485038
C            1.66991114180042       -1.95575322284087        0.00010982810088
C            2.60025826211499        1.00400746415476        0.00008705232972
H           -3.54966313237113       -0.06549584638828       -0.94155477425637
H           -3.24477864275276       -1.45793339526633        0.10962855441813
H           -3.60513556739037        0.13281197837582        0.80720969732228
H           -1.90847536109049        2.08537243419356        0.00386825774318
H            0.49709073717140        2.60970602341253       -0.00085926732676
H           -0.95881721083923       -2.09000158654373        0.00488446201319
H            1.47787464509027       -2.59362589128776       -0.86952843271198
H            2.72296333293829       -1.67792243026741       -0.01821310075301
H            1.50342500450443       -2.57350345149130        0.88947154717102
H            3.30567253328663        0.17401024055238       -0.00993721484967
H            2.81165244634241        1.63104948559282       -0.87310620921904
H            2.81508026830364        1.61191881998488        0.88599707161875
