12
 xtb: 6.7.1 (edcfbbe)
C           -0.69270031707840       -2.06882631955328       -0.00001922579973
C            0.69271568568757       -2.06882193270180       -0.00001098375905
C            1.38633678258694       -0.86573961951892        0.00001243091157
C            0.70120688712461        0.35235096476945        0.00002626201302
C           -0.70120724249424        0.35234653769967        0.00001804649043
C           -1.38632918833173       -0.86574844247918       -0.00000566122543
Cl          -3.12793986573702       -0.89864645430838       -0.00001553334148
Cl          -1.57112265636127        1.85018697592721        0.00002796519054
Cl           1.57111256289796        1.85019723115406        0.00004919571920
Cl           3.12794761653303       -0.89862650192760        0.00002640131130
H           -1.23490272048811       -3.00667609065276       -0.00003874055824
H            1.23492408124572       -3.00666823828972       -0.00002550495217
