 xtb: 6.7.1 (edcfbbe)
          04092505213D

 41 40  0     0  0            999 V2000
    5.4708   -0.5871    0.0080 C   0  0  0  0  0  0  0  0  0  0  0  0
    4.2580   -1.4930   -0.0489 C   0  0  0  0  0  0  0  0  0  0  0  0
    3.3228   -1.0498   -1.0631 O   0  0  0  0  0  0  0  0  0  0  0  0
    2.0991   -0.0957   -0.7865 P   0  0  0  0  0  0  0  0  0  0  0  0
    1.1073    0.2037   -2.4441 S   0  0  0  0  0  0  0  0  0  0  0  0
    2.7913    1.1630   -0.1148 O   0  0  0  0  0  0  0  0  0  0  0  0
    2.1089    2.3950    0.1815 C   0  0  0  0  0  0  0  0  0  0  0  0
    3.1540    3.4856    0.2964 C   0  0  0  0  0  0  0  0  0  0  0  0
    1.0435   -1.0264    0.8180 S   0  0  0  0  0  0  0  0  0  0  0  0
   -0.2147   -1.8823   -0.1868 C   0  0  0  0  0  0  0  0  0  0  0  0
   -1.8418   -1.9455    0.6022 S   0  0  0  0  0  0  0  0  0  0  0  0
   -2.4928    0.0840    0.4940 P   0  0  0  0  0  0  0  0  0  0  0  0
   -1.1641    1.4845    0.1208 S   0  0  0  0  0  0  0  0  0  0  0  0
   -3.2976    0.3102    1.8347 O   0  0  0  0  0  0  0  0  0  0  0  0
   -2.6723    0.8525    3.0111 C   0  0  0  0  0  0  0  0  0  0  0  0
   -1.7191   -0.1367    3.6530 C   0  0  0  0  0  0  0  0  0  0  0  0
   -3.7689    0.0339   -0.4441 O   0  0  0  0  0  0  0  0  0  0  0  0
   -3.8122   -0.5788   -1.7431 C   0  0  0  0  0  0  0  0  0  0  0  0
   -2.9907    0.1765   -2.7703 C   0  0  0  0  0  0  0  0  0  0  0  0
    6.1827   -0.9932    0.7199 H   0  0  0  0  0  0  0  0  0  0  0  0
    5.9367   -0.5276   -0.9718 H   0  0  0  0  0  0  0  0  0  0  0  0
    5.1818    0.4128    0.3193 H   0  0  0  0  0  0  0  0  0  0  0  0
    3.7427   -1.5285    0.9154 H   0  0  0  0  0  0  0  0  0  0  0  0
    4.5309   -2.5028   -0.3606 H   0  0  0  0  0  0  0  0  0  0  0  0
    1.3903    2.6059   -0.6168 H   0  0  0  0  0  0  0  0  0  0  0  0
    1.5560    2.2654    1.1151 H   0  0  0  0  0  0  0  0  0  0  0  0
    3.6957    3.5831   -0.6404 H   0  0  0  0  0  0  0  0  0  0  0  0
    2.6601    4.4244    0.5237 H   0  0  0  0  0  0  0  0  0  0  0  0
    3.8561    3.2467    1.0900 H   0  0  0  0  0  0  0  0  0  0  0  0
    0.0809   -2.9212   -0.3099 H   0  0  0  0  0  0  0  0  0  0  0  0
   -0.2749   -1.3707   -1.1512 H   0  0  0  0  0  0  0  0  0  0  0  0
   -2.1472    1.7730    2.7344 H   0  0  0  0  0  0  0  0  0  0  0  0
   -3.5106    1.0881    3.6680 H   0  0  0  0  0  0  0  0  0  0  0  0
   -2.2221   -1.0844    3.8272 H   0  0  0  0  0  0  0  0  0  0  0  0
   -0.8605   -0.3091    3.0040 H   0  0  0  0  0  0  0  0  0  0  0  0
   -1.3681    0.2647    4.5982 H   0  0  0  0  0  0  0  0  0  0  0  0
   -3.4747   -1.6166   -1.6562 H   0  0  0  0  0  0  0  0  0  0  0  0
   -4.8731   -0.5603   -1.9995 H   0  0  0  0  0  0  0  0  0  0  0  0
   -3.2970    1.2191   -2.8041 H   0  0  0  0  0  0  0  0  0  0  0  0
   -1.9285    0.1439   -2.5279 H   0  0  0  0  0  0  0  0  0  0  0  0
   -3.1350   -0.2709   -3.7484 H   0  0  0  0  0  0  0  0  0  0  0  0
  1  2  1  0  0  0  0
  2  3  1  0  0  0  0
  3  4  2  0  0  0  0
  4  5  2  0  0  0  0
  4  6  2  0  0  0  0
  6  7  1  0  0  0  0
  7  8  1  0  0  0  0
  4  9  1  0  0  0  0
  9 10  1  0  0  0  0
 10 11  1  0  0  0  0
 11 12  1  0  0  0  0
 12 13  2  0  0  0  0
 12 14  2  0  0  0  0
 14 15  1  0  0  0  0
 15 16  1  0  0  0  0
 12 17  2  0  0  0  0
 17 18  1  0  0  0  0
 18 19  1  0  0  0  0
  1 20  1  0  0  0  0
  1 21  1  0  0  0  0
  1 22  1  0  0  0  0
  2 23  1  0  0  0  0
  2 24  1  0  0  0  0
  7 25  1  0  0  0  0
  7 26  1  0  0  0  0
  8 27  1  0  0  0  0
  8 28  1  0  0  0  0
  8 29  1  0  0  0  0
 10 30  1  0  0  0  0
 10 31  1  0  0  0  0
 15 32  1  0  0  0  0
 15 33  1  0  0  0  0
 16 34  1  0  0  0  0
 16 35  1  0  0  0  0
 16 36  1  0  0  0  0
 18 37  1  0  0  0  0
 18 38  1  0  0  0  0
 19 39  1  0  0  0  0
 19 40  1  0  0  0  0
 19 41  1  0  0  0  0
M  END
