38
 xtb: 6.7.1 (edcfbbe)
C            5.14948766308109       -3.11415431981730        0.35830553078941
C            4.63727727321468       -2.00567629675536       -0.52402628668272
O            3.17386055780713       -2.01768821586247       -0.42514559619466
C            2.52306910219039       -1.10314750768572       -1.15643995560139
O            3.07631666725452       -0.28312330868277       -1.86954586937410
C            1.02790255989396       -1.26055092216538       -1.03597026845061
C            0.31766204204472        0.08254256559795       -1.13940316890338
H            0.62578052881241        0.59165677626710       -2.06254577095763
C            0.71369503068464        1.01563295683660       -0.00423355007070
O            1.66330614509940        0.78838529516521        0.72190722667190
O           -0.04833001716988        2.10476902928165        0.04555431054648
C            0.24713511101032        3.08232655192172        1.10021855485769
C            1.34437395915588        4.02264861601354        0.66363357908686
S           -1.51063602341797       -0.11482932744270       -1.38584494890594
P           -2.31687662804023       -0.22950559819031        0.57688860152446
S           -1.21920429855897       -1.07463599940718        1.93487014342656
O           -2.76923429416831        1.23745253373465        1.04107508277257
C           -3.50188336546527        2.13482948670619        0.15508125680157
O           -3.74577851873480       -0.88898543549101        0.22541951422900
C           -3.84654589339966       -2.31693080914390       -0.04494538219718
H            4.85802361837502       -2.95497312361380        1.40039783869244
H            4.77363301432883       -4.08649139934403        0.02727531780148
H            6.24206123250007       -3.13274728421991        0.30629438961894
H            4.91022959943447       -2.15410495907229       -1.57286282543026
H            4.99070565027293       -1.02295869803867       -0.19836429706609
H            0.77121650523432       -1.77397272883291       -0.10803630710502
H            0.71653041459456       -1.89722244789059       -1.87229186445036
H           -0.70245881036970        3.60293585563042        1.23899219488921
H            0.50051401383750        2.53735568904797        2.01293474391426
H            1.06570332599817        4.54263092023887       -0.25730967728652
H            1.50026744373198        4.77151236631139        1.44663303251372
H            2.28620266981900        3.49117557948822        0.50399517979434
H           -3.75206176777241        3.00181084516661        0.76638435609564
H           -4.41396745700648        1.65465807806916       -0.20752592287236
H           -2.86517880759076        2.43471942534499       -0.68072207169153
H           -3.55119520656704       -2.88372383391732        0.84150998559568
H           -3.22158212598331       -2.59050500330608       -0.89957492514789
H           -4.89628030777833       -2.49612367389234       -0.27663336771346
