38
 xtb: 6.7.1 (edcfbbe)
C            4.91849220757289       -3.42989708880292       -1.10036298928167
C            5.07632421796124       -2.14152156832630       -0.32861546599763
O            3.89122182724420       -1.88063744359135        0.49734174893711
C            2.84427519366993       -1.30568462071532       -0.10533994515046
O            2.81937348875165       -0.95952810107402       -1.27404348994948
C            1.69527332796429       -1.13329997080234        0.85525724840808
C            0.50395454469299       -0.48782355731399        0.15708588078149
H            0.08756791738054       -1.15164819679585       -0.60474699808066
C            0.80876879485302        0.84605608432359       -0.50094264855634
O            0.32723654025779        1.18877071835407       -1.56522069388915
O            1.62719622211461        1.59337243012248        0.24447986403155
C            1.89676452096454        2.95583480515184       -0.22970628665175
C            0.76708809250844        3.88242521020293        0.15304717890566
S           -0.80348789087736       -0.21090057360385        1.44922506369736
P           -2.51479427448996        0.11770709053622        0.24396878235038
S           -2.80349002815844       -1.09162973503658       -1.24871572005638
O           -3.64851637197723        0.15052098773621        1.39109966080559
C           -4.23838256682756       -1.09252040539675        1.87157222551686
O           -2.39092398654439        1.68504440647404       -0.08483201497302
C           -3.05720751542682        2.26047733445621       -1.24736901171085
H            4.09596483628855       -3.36896654241625       -1.81795864567358
H            5.84252519465292       -3.62582829538409       -1.65339551879875
H            4.74015954613696       -4.26928856004845       -0.42228132717748
H            5.24101477955914       -1.28170095874017       -0.98226793397750
H            5.88785008642253       -2.20399999013172        0.39816259508479
H            2.04510563056848       -0.54109604770765        1.70722776666310
H            1.41696328654636       -2.11949845213696        1.24127298505395
H            2.82753326843986        3.22415438527893        0.27232149671455
H            2.06224016948058        2.92136910554325       -1.30902585657052
H            0.60628576925763        3.87041432719347        1.23493413989668
H            1.03082207536524        4.90234580561149       -0.14393208536958
H           -0.16494798957198        3.60869053098841       -0.34921943740910
H           -4.93311116669064       -0.79840468225042        2.65823332663438
H           -3.46654980632681       -1.75034587299957        2.28107158484120
H           -4.77292388352809       -1.59025617014364        1.05914159726811
H           -4.13831649146710        2.11854369822036       -1.17548855451095
H           -2.67054091322954        1.80732603060733       -2.16271084518120
H           -2.81444962987464        3.32271717897640       -1.21885190347139
