 xtb: 6.7.1 (edcfbbe)
          04092505213D

 41 40  0     0  0            999 V2000
    2.7909   -2.9365   -2.2343 C   0  0  0  0  0  0  0  0  0  0  0  0
    3.0804   -2.6748   -0.7701 C   0  0  0  0  0  0  0  0  0  0  0  0
    3.4999   -1.3030   -0.5594 O   0  0  0  0  0  0  0  0  0  0  0  0
    2.5180   -0.1522   -0.0849 P   0  0  0  0  0  0  0  0  0  0  0  0
    3.5081    1.5024    0.2287 S   0  0  0  0  0  0  0  0  0  0  0  0
    1.7165   -0.7490    1.1697 O   0  0  0  0  0  0  0  0  0  0  0  0
    2.2204   -0.6180    2.5182 C   0  0  0  0  0  0  0  0  0  0  0  0
    1.5360    0.5279    3.2353 C   0  0  0  0  0  0  0  0  0  0  0  0
    0.9609   -0.0976   -1.5060 S   0  0  0  0  0  0  0  0  0  0  0  0
    0.2922    1.5127   -1.0160 C   0  0  0  0  0  0  0  0  0  0  0  0
   -0.6612    1.4509    0.5146 S   0  0  0  0  0  0  0  0  0  0  0  0
   -2.4402    0.5429   -0.2734 P   0  0  0  0  0  0  0  0  0  0  0  0
   -2.6023    0.5003   -2.2216 S   0  0  0  0  0  0  0  0  0  0  0  0
   -3.6220    1.3746    0.3459 O   0  0  0  0  0  0  0  0  0  0  0  0
   -3.7707    1.6357    1.7643 C   0  0  0  0  0  0  0  0  0  0  0  0
   -4.7300    0.6477    2.3959 C   0  0  0  0  0  0  0  0  0  0  0  0
   -2.5556   -0.8299    0.5276 O   0  0  0  0  0  0  0  0  0  0  0  0
   -1.5799   -1.8857    0.5210 C   0  0  0  0  0  0  0  0  0  0  0  0
   -1.5911   -2.6720   -0.7748 C   0  0  0  0  0  0  0  0  0  0  0  0
    2.5755   -3.9917   -2.3696 H   0  0  0  0  0  0  0  0  0  0  0  0
    1.9349   -2.3533   -2.5677 H   0  0  0  0  0  0  0  0  0  0  0  0
    3.6529   -2.6667   -2.8379 H   0  0  0  0  0  0  0  0  0  0  0  0
    3.9276   -3.2692   -0.4236 H   0  0  0  0  0  0  0  0  0  0  0  0
    2.2038   -2.8781   -0.1502 H   0  0  0  0  0  0  0  0  0  0  0  0
    1.9997   -1.5754    2.9933 H   0  0  0  0  0  0  0  0  0  0  0  0
    3.3030   -0.4635    2.4836 H   0  0  0  0  0  0  0  0  0  0  0  0
    0.4588    0.3903    3.2230 H   0  0  0  0  0  0  0  0  0  0  0  0
    1.8857    0.5668    4.2617 H   0  0  0  0  0  0  0  0  0  0  0  0
    1.7698    1.4697    2.7435 H   0  0  0  0  0  0  0  0  0  0  0  0
   -0.3516    1.8382   -1.8329 H   0  0  0  0  0  0  0  0  0  0  0  0
    1.1168    2.2063   -0.8490 H   0  0  0  0  0  0  0  0  0  0  0  0
   -2.7854    1.5973    2.2368 H   0  0  0  0  0  0  0  0  0  0  0  0
   -4.1600    2.6541    1.8134 H   0  0  0  0  0  0  0  0  0  0  0  0
   -5.6891    0.6863    1.8868 H   0  0  0  0  0  0  0  0  0  0  0  0
   -4.3369   -0.3623    2.3220 H   0  0  0  0  0  0  0  0  0  0  0  0
   -4.8682    0.9056    3.4412 H   0  0  0  0  0  0  0  0  0  0  0  0
   -0.5912   -1.4567    0.7110 H   0  0  0  0  0  0  0  0  0  0  0  0
   -1.8725   -2.5132    1.3653 H   0  0  0  0  0  0  0  0  0  0  0  0
   -1.2726   -2.0448   -1.6051 H   0  0  0  0  0  0  0  0  0  0  0  0
   -0.9129   -3.5151   -0.6890 H   0  0  0  0  0  0  0  0  0  0  0  0
   -2.5937   -3.0368   -0.9821 H   0  0  0  0  0  0  0  0  0  0  0  0
  1  2  1  0  0  0  0
  2  3  1  0  0  0  0
  3  4  2  0  0  0  0
  4  5  2  0  0  0  0
  4  6  1  0  0  0  0
  6  7  1  0  0  0  0
  7  8  1  0  0  0  0
  4  9  1  0  0  0  0
  9 10  1  0  0  0  0
 10 11  1  0  0  0  0
 11 12  1  0  0  0  0
 12 13  2  0  0  0  0
 12 14  2  0  0  0  0
 14 15  1  0  0  0  0
 15 16  1  0  0  0  0
 12 17  2  0  0  0  0
 17 18  1  0  0  0  0
 18 19  1  0  0  0  0
  1 20  1  0  0  0  0
  1 21  1  0  0  0  0
  1 22  1  0  0  0  0
  2 23  1  0  0  0  0
  2 24  1  0  0  0  0
  7 25  1  0  0  0  0
  7 26  1  0  0  0  0
  8 27  1  0  0  0  0
  8 28  1  0  0  0  0
  8 29  1  0  0  0  0
 10 30  1  0  0  0  0
 10 31  1  0  0  0  0
 15 32  1  0  0  0  0
 15 33  1  0  0  0  0
 16 34  1  0  0  0  0
 16 35  1  0  0  0  0
 16 36  1  0  0  0  0
 18 37  1  0  0  0  0
 18 38  1  0  0  0  0
 19 39  1  0  0  0  0
 19 40  1  0  0  0  0
 19 41  1  0  0  0  0
M  END
