 xtb: 6.7.1 (edcfbbe)
          04092505203D

 41 40  0     0  0            999 V2000
    5.8619   -0.1880   -0.2622 C   0  0  0  0  0  0  0  0  0  0  0  0
    4.4686   -0.5112   -0.7618 C   0  0  0  0  0  0  0  0  0  0  0  0
    3.5368    0.3268   -0.0477 O   0  0  0  0  0  0  0  0  0  0  0  0
    2.0325    0.4914   -0.5447 P   0  0  0  0  0  0  0  0  0  0  0  0
    1.8495    0.9977   -2.4243 S   0  0  0  0  0  0  0  0  0  0  0  0
    1.4988    1.5580    0.4803 O   0  0  0  0  0  0  0  0  0  0  0  0
    1.7236    1.4354    1.9103 C   0  0  0  0  0  0  0  0  0  0  0  0
    0.8622    2.4724    2.5985 C   0  0  0  0  0  0  0  0  0  0  0  0
    1.2249   -1.4070   -0.0229 S   0  0  0  0  0  0  0  0  0  0  0  0
    0.0305   -1.6540   -1.3740 C   0  0  0  0  0  0  0  0  0  0  0  0
   -1.6472   -1.9309   -0.7752 S   0  0  0  0  0  0  0  0  0  0  0  0
   -1.9449   -0.0305    0.1402 P   0  0  0  0  0  0  0  0  0  0  0  0
   -1.4086    1.4793   -0.9928 S   0  0  0  0  0  0  0  0  0  0  0  0
   -1.2216    0.0032    1.5374 O   0  0  0  0  0  0  0  0  0  0  0  0
   -1.6594   -0.6747    2.7465 C   0  0  0  0  0  0  0  0  0  0  0  0
   -1.5344   -2.1804    2.6456 C   0  0  0  0  0  0  0  0  0  0  0  0
   -3.4756   -0.0785    0.5509 O   0  0  0  0  0  0  0  0  0  0  0  0
   -4.5165   -0.0331   -0.4472 C   0  0  0  0  0  0  0  0  0  0  0  0
   -5.8216    0.2718    0.2592 C   0  0  0  0  0  0  0  0  0  0  0  0
    6.0912    0.8576   -0.4477 H   0  0  0  0  0  0  0  0  0  0  0  0
    5.9286   -0.3808    0.8044 H   0  0  0  0  0  0  0  0  0  0  0  0
    6.5795   -0.8104   -0.7865 H   0  0  0  0  0  0  0  0  0  0  0  0
    4.2054   -1.5545   -0.5676 H   0  0  0  0  0  0  0  0  0  0  0  0
    4.3659   -0.3081   -1.8328 H   0  0  0  0  0  0  0  0  0  0  0  0
    1.4542    0.4190    2.2121 H   0  0  0  0  0  0  0  0  0  0  0  0
    2.7859    1.6014    2.0977 H   0  0  0  0  0  0  0  0  0  0  0  0
   -0.1840    2.3047    2.3553 H   0  0  0  0  0  0  0  0  0  0  0  0
    1.0041    2.4007    3.6720 H   0  0  0  0  0  0  0  0  0  0  0  0
    1.1381    3.4675    2.2613 H   0  0  0  0  0  0  0  0  0  0  0  0
    0.3121   -2.5526   -1.9169 H   0  0  0  0  0  0  0  0  0  0  0  0
    0.0610   -0.7745   -2.0241 H   0  0  0  0  0  0  0  0  0  0  0  0
   -0.9930   -0.2681    3.5092 H   0  0  0  0  0  0  0  0  0  0  0  0
   -2.6880   -0.3755    2.9512 H   0  0  0  0  0  0  0  0  0  0  0  0
   -1.7163   -2.6127    3.6246 H   0  0  0  0  0  0  0  0  0  0  0  0
   -2.2611   -2.5799    1.9423 H   0  0  0  0  0  0  0  0  0  0  0  0
   -0.5362   -2.4568    2.3128 H   0  0  0  0  0  0  0  0  0  0  0  0
   -4.2621    0.7401   -1.1795 H   0  0  0  0  0  0  0  0  0  0  0  0
   -4.5489   -1.0038   -0.9487 H   0  0  0  0  0  0  0  0  0  0  0  0
   -6.0352   -0.4984    0.9943 H   0  0  0  0  0  0  0  0  0  0  0  0
   -5.7593    1.2334    0.7610 H   0  0  0  0  0  0  0  0  0  0  0  0
   -6.6222    0.3020   -0.4725 H   0  0  0  0  0  0  0  0  0  0  0  0
  1  2  1  0  0  0  0
  2  3  1  0  0  0  0
  3  4  2  0  0  0  0
  4  5  2  0  0  0  0
  4  6  2  0  0  0  0
  6  7  1  0  0  0  0
  7  8  1  0  0  0  0
  4  9  1  0  0  0  0
  9 10  1  0  0  0  0
 10 11  1  0  0  0  0
 11 12  1  0  0  0  0
 12 13  2  0  0  0  0
 12 14  2  0  0  0  0
 14 15  1  0  0  0  0
 15 16  1  0  0  0  0
 12 17  2  0  0  0  0
 17 18  1  0  0  0  0
 18 19  1  0  0  0  0
  1 20  1  0  0  0  0
  1 21  1  0  0  0  0
  1 22  1  0  0  0  0
  2 23  1  0  0  0  0
  2 24  1  0  0  0  0
  7 25  1  0  0  0  0
  7 26  1  0  0  0  0
  8 27  1  0  0  0  0
  8 28  1  0  0  0  0
  8 29  1  0  0  0  0
 10 30  1  0  0  0  0
 10 31  1  0  0  0  0
 15 32  1  0  0  0  0
 15 33  1  0  0  0  0
 16 34  1  0  0  0  0
 16 35  1  0  0  0  0
 16 36  1  0  0  0  0
 18 37  1  0  0  0  0
 18 38  1  0  0  0  0
 19 39  1  0  0  0  0
 19 40  1  0  0  0  0
 19 41  1  0  0  0  0
M  END
