 xtb: 6.7.1 (edcfbbe)
          04092505203D

 41 40  0     0  0            999 V2000
    3.3552    1.7786   -1.8629 C   0  0  0  0  0  0  0  0  0  0  0  0
    2.1000    0.9516   -2.0417 C   0  0  0  0  0  0  0  0  0  0  0  0
    2.1708   -0.2783   -1.2985 O   0  0  0  0  0  0  0  0  0  0  0  0
    2.1768   -0.3404    0.2853 P   0  0  0  0  0  0  0  0  0  0  0  0
    1.1539    1.0941    1.1625 S   0  0  0  0  0  0  0  0  0  0  0  0
    3.7355   -0.3876    0.5794 O   0  0  0  0  0  0  0  0  0  0  0  0
    4.3537   -0.9306    1.7611 C   0  0  0  0  0  0  0  0  0  0  0  0
    3.7603   -0.3857    3.0435 C   0  0  0  0  0  0  0  0  0  0  0  0
    1.5437   -2.3197    0.6231 S   0  0  0  0  0  0  0  0  0  0  0  0
   -0.2399   -2.0312    0.6289 C   0  0  0  0  0  0  0  0  0  0  0  0
   -0.8752   -1.4616   -0.9876 S   0  0  0  0  0  0  0  0  0  0  0  0
   -2.0040    0.2229   -0.3899 P   0  0  0  0  0  0  0  0  0  0  0  0
   -2.4468    0.3320    1.5198 S   0  0  0  0  0  0  0  0  0  0  0  0
   -3.2306    0.1586   -1.4022 O   0  0  0  0  0  0  0  0  0  0  0  0
   -4.2572   -0.8481   -1.3233 C   0  0  0  0  0  0  0  0  0  0  0  0
   -5.4216   -0.3794   -0.4716 C   0  0  0  0  0  0  0  0  0  0  0  0
   -1.2049    1.4344   -1.0226 O   0  0  0  0  0  0  0  0  0  0  0  0
   -1.3663    2.7826   -0.5351 C   0  0  0  0  0  0  0  0  0  0  0  0
   -2.7632    3.3065   -0.7861 C   0  0  0  0  0  0  0  0  0  0  0  0
    4.2294    1.1950   -2.1386 H   0  0  0  0  0  0  0  0  0  0  0  0
    3.2981    2.6663   -2.4849 H   0  0  0  0  0  0  0  0  0  0  0  0
    3.4489    2.0780   -0.8190 H   0  0  0  0  0  0  0  0  0  0  0  0
    1.9660    0.6248   -3.0739 H   0  0  0  0  0  0  0  0  0  0  0  0
    1.2146    1.5061   -1.7144 H   0  0  0  0  0  0  0  0  0  0  0  0
    4.2580   -2.0191    1.7221 H   0  0  0  0  0  0  0  0  0  0  0  0
    5.4020   -0.6459    1.6544 H   0  0  0  0  0  0  0  0  0  0  0  0
    4.3189   -0.7701    3.8909 H   0  0  0  0  0  0  0  0  0  0  0  0
    3.7988    0.7012    3.0502 H   0  0  0  0  0  0  0  0  0  0  0  0
    2.7193   -0.6935    3.1373 H   0  0  0  0  0  0  0  0  0  0  0  0
   -0.5006   -1.2844    1.3849 H   0  0  0  0  0  0  0  0  0  0  0  0
   -0.6929   -2.9925    0.8575 H   0  0  0  0  0  0  0  0  0  0  0  0
   -4.5619   -1.0065   -2.3595 H   0  0  0  0  0  0  0  0  0  0  0  0
   -3.8265   -1.7720   -0.9260 H   0  0  0  0  0  0  0  0  0  0  0  0
   -6.1964   -1.1391   -0.4777 H   0  0  0  0  0  0  0  0  0  0  0  0
   -5.0969   -0.2124    0.5530 H   0  0  0  0  0  0  0  0  0  0  0  0
   -5.8249    0.5484   -0.8677 H   0  0  0  0  0  0  0  0  0  0  0  0
   -1.1239    2.7942    0.5331 H   0  0  0  0  0  0  0  0  0  0  0  0
   -0.6130    3.3519   -1.0819 H   0  0  0  0  0  0  0  0  0  0  0  0
   -3.4811    2.7322   -0.2016 H   0  0  0  0  0  0  0  0  0  0  0  0
   -2.8153    4.3483   -0.4860 H   0  0  0  0  0  0  0  0  0  0  0  0
   -3.0131    3.2155   -1.8400 H   0  0  0  0  0  0  0  0  0  0  0  0
  1  2  1  0  0  0  0
  2  3  1  0  0  0  0
  3  4  2  0  0  0  0
  4  5  2  0  0  0  0
  4  6  2  0  0  0  0
  6  7  1  0  0  0  0
  7  8  1  0  0  0  0
  4  9  1  0  0  0  0
  9 10  1  0  0  0  0
 10 11  1  0  0  0  0
 11 12  1  0  0  0  0
 12 13  2  0  0  0  0
 12 14  2  0  0  0  0
 14 15  1  0  0  0  0
 15 16  1  0  0  0  0
 12 17  2  0  0  0  0
 17 18  1  0  0  0  0
 18 19  1  0  0  0  0
  1 20  1  0  0  0  0
  1 21  1  0  0  0  0
  1 22  1  0  0  0  0
  2 23  1  0  0  0  0
  2 24  1  0  0  0  0
  7 25  1  0  0  0  0
  7 26  1  0  0  0  0
  8 27  1  0  0  0  0
  8 28  1  0  0  0  0
  8 29  1  0  0  0  0
 10 30  1  0  0  0  0
 10 31  1  0  0  0  0
 15 32  1  0  0  0  0
 15 33  1  0  0  0  0
 16 34  1  0  0  0  0
 16 35  1  0  0  0  0
 16 36  1  0  0  0  0
 18 37  1  0  0  0  0
 18 38  1  0  0  0  0
 19 39  1  0  0  0  0
 19 40  1  0  0  0  0
 19 41  1  0  0  0  0
M  END
