41
 xtb: 6.7.1 (edcfbbe)
C            5.27653420636588       -2.37685184657081       -1.26891999747895
C            4.41849825880140       -1.13970240447763       -1.31166149253509
O            3.40638201974649       -1.28050741240048       -0.25477643197674
P            2.32900442497700       -0.11236548726076        0.01276050875697
S            2.99485257994445        1.71654365352959        0.08885728716477
O            1.60240739623996       -0.67932068155753        1.32630050395786
C            1.99309934110858       -0.25344953729350        2.68002131213407
C            3.30496395840603       -0.86606928687920        3.10277071488588
S            0.89918048893237       -0.52847224166727       -1.49636752882631
C           -0.00306595538946        1.06991514052273       -1.55502708690589
S           -1.02817463545584        1.50677467281606       -0.10145590222485
P           -2.83533849680314        0.40612356979263       -0.43056862489072
S           -3.09845475926241       -0.14847124331522       -2.27764903236935
O           -3.98765316783425        1.40281908757025        0.06928795906991
C           -4.40778171201474        1.55431325551999        1.47729986151988
C           -3.33054826867489        2.14117064461748        2.35455247653888
O           -2.89824767875015       -0.71909663205296        0.71494379600059
C           -1.82607784043371       -1.68786773501593        0.97399577566294
C           -1.91678862536591       -2.88872240262241        0.06613300637736
H            5.77216397773255       -2.47398622371720       -0.29879161012343
H            4.68215677226212       -3.27469282597591       -1.45952622232368
H            6.04543216292910       -2.29993995686357       -2.04356053154154
H            3.90366968722529       -1.03458397497057       -2.27255722184703
H            4.99766060290877       -0.23367803507478       -1.11040880321704
H            2.02220313988557        0.84017447314715        2.69963554744370
H            1.16471496980622       -0.59924699771390        3.30152874521515
H            4.13847802243776       -0.48847378447996        2.50293799368773
H            3.49217182407582       -0.60191377880816        4.14878087809283
H            3.27167431003184       -1.95630415528009        3.02259705653935
H           -0.63685789682147        1.02111516897103       -2.44522215217523
H            0.71935580272343        1.88471763783605       -1.66041388688509
H           -5.26615796446771        2.22449666909523        1.40240827211565
H           -4.74545780691141        0.57975720375398        1.83677356349442
H           -3.76106014269976        2.32817380787303        3.34401338775263
H           -2.48836172589558        1.45454522686161        2.48593517436418
H           -2.96795824072969        3.09304378946585        1.95617441099379
H           -0.86364968114520       -1.17467881926813        0.88226649431125
H           -1.97596750908068       -1.96374913548120        2.02016349349663
H           -1.72879244302504       -2.62148309675524       -0.97638336319222
H           -1.15730022197968       -3.61354291465300        0.37794645527217
H           -2.89864023907083       -3.36486094377313        0.14285773094082
