4
 xtb: 6.7.1 (edcfbbe)
C            0.60556164586475       -0.00001839106272       -0.00009945122443
O           -0.60808137478915        0.00003933432122        0.00003151499910
H            1.18514317762864       -0.94199693384477        0.00007529195847
H            1.18524168789119        0.94189992989422        0.00007578356091
