41
 xtb: 6.7.1 (edcfbbe)
C            3.54520224804539       -1.83620358249965        2.06591333694361
C            2.25615650952837       -1.99270523012110        1.29719968298779
O            1.73357288454853       -0.69686042307979        0.84024203895776
P            2.38558423017088        0.10167247870728       -0.39433780640212
S            3.04254795099958       -0.97337314230273       -1.87647939422324
O            3.53791939486548        1.04296340334657        0.21588276577438
C            3.32809444124694        1.82613064748578        1.45117789821759
C            4.68691537401500        2.09863750587620        2.04027281725441
S            0.85579856739644        1.50314401414830       -0.84319961011616
C           -0.21060754860910        0.48872708555138       -1.94484950894360
S           -1.14653684671712       -0.89217256834208       -1.18274169798194
P           -2.67455103326195        0.17414141202034       -0.15564302911590
S           -3.55782978520823        1.57852569175514       -1.16782091557533
O           -2.03365015419443        0.75644511519427        1.19399050554748
C           -1.36602762616749       -0.11574947200339        2.17682267420993
C           -0.49332451604498        0.76287180407855        3.03423684636896
O           -3.55086602827614       -1.05855703615095        0.38851061951457
C           -4.75091563748758       -1.56588633531815       -0.29548511485305
C           -4.40285713370104       -2.47479694707501       -1.44705591145145
H            4.35413669551948       -1.46922207522376        1.42693321596539
H            3.41620587988940       -1.15341876788514        2.91076779450145
H            3.83957389191972       -2.81587776699285        2.45669458811250
H            1.45413428109887       -2.38153066104604        1.92866794294971
H            2.37123344297951       -2.64340975293187        0.42489783600687
H            2.81420778830522        2.75209129743867        1.17409023157837
H            2.69992873054033        1.24915816904913        2.13531152327242
H            4.56496640091260        2.70371380783371        2.94406908283538
H            5.18836984495019        1.16556378534203        2.31280708851884
H            5.31557107376475        2.65167599751417        1.33685744663049
H            0.40835840248035        0.03598863664013       -2.72492731742567
H           -0.91009179244945        1.19424553106938       -2.40458998298993
H           -2.14622494601674       -0.61436198657230        2.75870323591809
H           -0.77728961111043       -0.86546640870274        1.63914088939727
H            0.25217671925977        1.28311722937785        2.42644079884259
H           -1.09120348996110        1.50114168053030        3.57615769454971
H            0.03001888466560        0.13766261510162        3.76463679737229
H           -5.28410052579744       -2.10065326644993        0.49276253890562
H           -5.35000495217642       -0.70817193795861       -0.61496809857356
H           -3.74971165390476       -3.28939206188547       -1.12087214178486
H           -5.32885963236369       -2.91057360054556       -1.83623032201959
H           -3.91682374417706       -1.92817559939628       -2.25982258372309
