 xtb: 6.7.1 (edcfbbe)
          04032519593D

 12 12  0     0  0            999 V2000
   -2.4706    0.6926    0.0000 C   0  0  0  0  0  0  0  0  0  0  0  0
   -2.4706   -0.6925   -0.0000 C   0  0  0  0  0  0  0  0  0  0  0  0
   -1.2745   -1.3891   -0.0000 C   0  0  0  0  0  0  0  0  0  0  0  0
   -0.0755   -0.6947    0.0000 C   0  0  0  0  0  0  0  0  0  0  0  0
   -0.0754    0.6947   -0.0000 C   0  0  0  0  0  0  0  0  0  0  0  0
   -1.2745    1.3892    0.0000 C   0  0  0  0  0  0  0  0  0  0  0  0
    1.4268    1.5658   -0.0000 Cl  0  0  0  0  0  0  0  0  0  0  0  0
    1.4268   -1.5659    0.0000 Cl  0  0  0  0  0  0  0  0  0  0  0  0
   -3.4009    1.2366   -0.0000 H   0  0  0  0  0  0  0  0  0  0  0  0
   -3.4009   -1.2366    0.0001 H   0  0  0  0  0  0  0  0  0  0  0  0
   -1.2589   -2.4665    0.0000 H   0  0  0  0  0  0  0  0  0  0  0  0
   -1.2588    2.4665    0.0000 H   0  0  0  0  0  0  0  0  0  0  0  0
  1  2  4  0  0  0  0
  2  3  4  0  0  0  0
  3  4  4  0  0  0  0
  4  5  4  0  0  0  0
  1  6  4  0  0  0  0
  5  6  4  0  0  0  0
  5  7  1  0  0  0  0
  4  8  1  0  0  0  0
  1  9  1  0  0  0  0
  2 10  1  0  0  0  0
  3 11  1  0  0  0  0
  6 12  1  0  0  0  0
M  END
