 xtb: 6.7.1 (edcfbbe)
          04092505213D

 41 40  0     0  0            999 V2000
    4.9529    1.2847   -1.0796 C   0  0  0  0  0  0  0  0  0  0  0  0
    4.5095   -0.1479   -1.2889 C   0  0  0  0  0  0  0  0  0  0  0  0
    3.6823   -0.6409   -0.2184 O   0  0  0  0  0  0  0  0  0  0  0  0
    2.3649    0.0588    0.3330 P   0  0  0  0  0  0  0  0  0  0  0  0
    2.5611    1.6039    1.5136 S   0  0  0  0  0  0  0  0  0  0  0  0
    1.6947   -1.1341    1.1154 O   0  0  0  0  0  0  0  0  0  0  0  0
    1.5582   -2.4724    0.5707 C   0  0  0  0  0  0  0  0  0  0  0  0
    0.6523   -3.2551    1.4962 C   0  0  0  0  0  0  0  0  0  0  0  0
    1.2274    0.3835   -1.4444 S   0  0  0  0  0  0  0  0  0  0  0  0
    0.1010    1.6160   -0.7365 C   0  0  0  0  0  0  0  0  0  0  0  0
   -0.8755    1.0086    0.6602 S   0  0  0  0  0  0  0  0  0  0  0  0
   -2.2753   -0.1641   -0.4624 P   0  0  0  0  0  0  0  0  0  0  0  0
   -1.5717   -1.7990   -1.2752 S   0  0  0  0  0  0  0  0  0  0  0  0
   -2.8804    0.8152   -1.5425 O   0  0  0  0  0  0  0  0  0  0  0  0
   -3.9769    1.7401   -1.3303 C   0  0  0  0  0  0  0  0  0  0  0  0
   -3.6372    2.8412   -0.3482 C   0  0  0  0  0  0  0  0  0  0  0  0
   -3.4874   -0.3885    0.5393 O   0  0  0  0  0  0  0  0  0  0  0  0
   -3.4997   -1.4636    1.4940 C   0  0  0  0  0  0  0  0  0  0  0  0
   -2.7081   -1.1140    2.7384 C   0  0  0  0  0  0  0  0  0  0  0  0
    5.4438    1.3927   -0.1154 H   0  0  0  0  0  0  0  0  0  0  0  0
    5.6416    1.5671   -1.8693 H   0  0  0  0  0  0  0  0  0  0  0  0
    4.0923    1.9517   -1.1022 H   0  0  0  0  0  0  0  0  0  0  0  0
    5.3594   -0.8328   -1.2904 H   0  0  0  0  0  0  0  0  0  0  0  0
    3.9507   -0.2487   -2.2237 H   0  0  0  0  0  0  0  0  0  0  0  0
    1.1290   -2.4043   -0.4340 H   0  0  0  0  0  0  0  0  0  0  0  0
    2.5545   -2.9134    0.5116 H   0  0  0  0  0  0  0  0  0  0  0  0
    1.0335   -3.2164    2.5124 H   0  0  0  0  0  0  0  0  0  0  0  0
   -0.3507   -2.8376    1.4752 H   0  0  0  0  0  0  0  0  0  0  0  0
    0.6097   -4.2855    1.1591 H   0  0  0  0  0  0  0  0  0  0  0  0
   -0.5546    1.9301   -1.5459 H   0  0  0  0  0  0  0  0  0  0  0  0
    0.6869    2.4476   -0.3451 H   0  0  0  0  0  0  0  0  0  0  0  0
   -4.1624    2.1349   -2.3306 H   0  0  0  0  0  0  0  0  0  0  0  0
   -4.8417    1.1690   -0.9893 H   0  0  0  0  0  0  0  0  0  0  0  0
   -4.4728    3.5324   -0.2951 H   0  0  0  0  0  0  0  0  0  0  0  0
   -3.4594    2.4260    0.6412 H   0  0  0  0  0  0  0  0  0  0  0  0
   -2.7502    3.3836   -0.6663 H   0  0  0  0  0  0  0  0  0  0  0  0
   -4.5570   -1.6060    1.7228 H   0  0  0  0  0  0  0  0  0  0  0  0
   -3.1028   -2.3630    1.0105 H   0  0  0  0  0  0  0  0  0  0  0  0
   -1.6584   -0.9573    2.4928 H   0  0  0  0  0  0  0  0  0  0  0  0
   -3.0937   -0.2033    3.1885 H   0  0  0  0  0  0  0  0  0  0  0  0
   -2.7851   -1.9277    3.4526 H   0  0  0  0  0  0  0  0  0  0  0  0
  1  2  1  0  0  0  0
  2  3  1  0  0  0  0
  3  4  2  0  0  0  0
  4  5  2  0  0  0  0
  4  6  2  0  0  0  0
  6  7  1  0  0  0  0
  7  8  1  0  0  0  0
  4  9  1  0  0  0  0
  9 10  1  0  0  0  0
 10 11  1  0  0  0  0
 11 12  1  0  0  0  0
 12 13  2  0  0  0  0
 12 14  2  0  0  0  0
 14 15  1  0  0  0  0
 15 16  1  0  0  0  0
 12 17  2  0  0  0  0
 17 18  1  0  0  0  0
 18 19  1  0  0  0  0
  1 20  1  0  0  0  0
  1 21  1  0  0  0  0
  1 22  1  0  0  0  0
  2 23  1  0  0  0  0
  2 24  1  0  0  0  0
  7 25  1  0  0  0  0
  7 26  1  0  0  0  0
  8 27  1  0  0  0  0
  8 28  1  0  0  0  0
  8 29  1  0  0  0  0
 10 30  1  0  0  0  0
 10 31  1  0  0  0  0
 15 32  1  0  0  0  0
 15 33  1  0  0  0  0
 16 34  1  0  0  0  0
 16 35  1  0  0  0  0
 16 36  1  0  0  0  0
 18 37  1  0  0  0  0
 18 38  1  0  0  0  0
 19 39  1  0  0  0  0
 19 40  1  0  0  0  0
 19 41  1  0  0  0  0
M  END
