38
 xtb: 6.7.1 (edcfbbe)
C            2.52947715807442       -2.78382131870452        0.61620769187605
C            3.42033337107578       -1.82668703670875       -0.13984564014775
O            2.61537936829280       -0.77802862064979       -0.77436005616759
C            2.02241804211686       -1.07120569089453       -1.93861203016594
O            2.18758651051786       -2.10826124809152       -2.55547244105734
C            1.13897580411426        0.06087383428328       -2.40521374546101
C            0.21087378615503        0.62044458731892       -1.31724964998809
H           -0.44601018742399        1.36173521327989       -1.78529422592419
C            0.98924002894593        1.37548327213967       -0.24590449251565
O            1.70803177387853        2.31092996618114       -0.55139177563477
O            0.76461122324327        0.95362085847674        0.98913578437428
C            1.45810155697619        1.64424049324413        2.08160812767618
C            2.84198782816054        1.07126180633922        2.27066285386705
S           -0.86094386442039       -0.77071700189062       -0.72864344491578
P           -2.31637173499994        0.24202600214556        0.43864892617571
S           -2.71250731977177        2.06452307597322       -0.10161572730080
O           -3.51012370076959       -0.84264546288775        0.39983989214312
C           -4.33024828133035       -0.98714949740707       -0.79425140909048
O           -1.90690174036402        0.16526266358511        1.98690484905778
C           -1.37392559428152       -1.05554418279445        2.57988907504111
H            1.92644302124979       -2.24847448202949        1.35609925213224
H            1.86258714298647       -3.32631636405210       -0.05964999814073
H            3.15466967365792       -3.51256108787709        1.14157621155376
H            4.01361833857941       -2.32567014204680       -0.90962063099230
H            4.08450916907389       -1.27681761287772        0.52873524038500
H            0.55233477619800       -0.28823074666191       -3.25589324469000
H            1.78476018355099        0.87739050630521       -2.74922580014258
H            1.47306479188848        2.71453198549484        1.86319299555322
H            0.81944870891191        1.45624077586228        2.94704764855871
H            2.79208243617997       -0.00506503761319        2.45957878512762
H            3.47365234461695        1.25490185966849        1.39746062573508
H            3.30590439408174        1.55102808194456        3.13817158806023
H           -3.70970326036134       -1.23929751693846       -1.65841749424353
H           -4.88391075257060       -0.06319185632048       -0.97805250628150
H           -5.01875636140054       -1.80378497438943       -0.57819590436434
H           -0.38386404745967       -1.26673036296275        2.16798333252388
H           -2.05146817209682       -1.89527811387357        2.40678173954561
H           -1.29997457807321       -0.84837776337399        3.64749443395962
