 xtb: 6.7.1 (edcfbbe)
          04032520473D

 22 22  0     0  0            999 V2000
    2.8095   -0.0000    0.0083 C   0  0  0  0  0  0  0  0  0  0  0  0
    1.3964   -0.0000   -0.3064 N   0  0  0  0  0  0  0  0  0  0  0  0
    0.7323    1.1833    0.2108 C   0  0  0  0  0  0  0  0  0  0  0  0
   -0.7323    1.1833   -0.2108 C   0  0  0  0  0  0  0  0  0  0  0  0
   -1.3964    0.0000    0.3064 N   0  0  0  0  0  0  0  0  0  0  0  0
   -0.7323   -1.1833   -0.2108 C   0  0  0  0  0  0  0  0  0  0  0  0
    0.7323   -1.1833    0.2108 C   0  0  0  0  0  0  0  0  0  0  0  0
   -2.8095    0.0000   -0.0083 C   0  0  0  0  0  0  0  0  0  0  0  0
    3.2689   -0.8853   -0.4274 H   0  0  0  0  0  0  0  0  0  0  0  0
    3.0012   -0.0000    1.0930 H   0  0  0  0  0  0  0  0  0  0  0  0
    3.2689    0.8853   -0.4274 H   0  0  0  0  0  0  0  0  0  0  0  0
    0.7880    1.2229    1.3137 H   0  0  0  0  0  0  0  0  0  0  0  0
    1.2287    2.0669   -0.1959 H   0  0  0  0  0  0  0  0  0  0  0  0
   -1.2287    2.0670    0.1959 H   0  0  0  0  0  0  0  0  0  0  0  0
   -0.7880    1.2229   -1.3137 H   0  0  0  0  0  0  0  0  0  0  0  0
   -1.2287   -2.0670    0.1959 H   0  0  0  0  0  0  0  0  0  0  0  0
   -0.7880   -1.2229   -1.3137 H   0  0  0  0  0  0  0  0  0  0  0  0
    0.7880   -1.2229    1.3137 H   0  0  0  0  0  0  0  0  0  0  0  0
    1.2287   -2.0670   -0.1959 H   0  0  0  0  0  0  0  0  0  0  0  0
   -3.2689    0.8853    0.4274 H   0  0  0  0  0  0  0  0  0  0  0  0
   -3.2689   -0.8853    0.4274 H   0  0  0  0  0  0  0  0  0  0  0  0
   -3.0012    0.0000   -1.0930 H   0  0  0  0  0  0  0  0  0  0  0  0
  1  2  1  0  0  0  0
  2  3  1  0  0  0  0
  3  4  1  0  0  0  0
  4  5  1  0  0  0  0
  5  6  1  0  0  0  0
  2  7  1  0  0  0  0
  6  7  1  0  0  0  0
  5  8  1  0  0  0  0
  1  9  1  0  0  0  0
  1 10  1  0  0  0  0
  1 11  1  0  0  0  0
  3 12  1  0  0  0  0
  3 13  1  0  0  0  0
  4 14  1  0  0  0  0
  4 15  1  0  0  0  0
  6 16  1  0  0  0  0
  6 17  1  0  0  0  0
  7 18  1  0  0  0  0
  7 19  1  0  0  0  0
  8 20  1  0  0  0  0
  8 21  1  0  0  0  0
  8 22  1  0  0  0  0
M  END
