 xtb: 6.7.1 (edcfbbe)
          04092505203D

 41 40  0     0  0            999 V2000
    4.7019   -1.5533   -0.5819 C   0  0  0  0  0  0  0  0  0  0  0  0
    4.6696   -0.0682   -0.2850 C   0  0  0  0  0  0  0  0  0  0  0  0
    3.4964    0.3080    0.4562 O   0  0  0  0  0  0  0  0  0  0  0  0
    2.0433    0.3198   -0.1927 P   0  0  0  0  0  0  0  0  0  0  0  0
    2.0263    0.8603   -2.0829 S   0  0  0  0  0  0  0  0  0  0  0  0
    1.2434    1.1388    0.9013 O   0  0  0  0  0  0  0  0  0  0  0  0
    1.6200    2.4311    1.4196 C   0  0  0  0  0  0  0  0  0  0  0  0
    1.7669    3.4742    0.3320 C   0  0  0  0  0  0  0  0  0  0  0  0
    1.2714   -1.6010    0.1943 S   0  0  0  0  0  0  0  0  0  0  0  0
    0.0710   -1.7677   -1.1706 C   0  0  0  0  0  0  0  0  0  0  0  0
   -1.6154   -2.0134   -0.5790 S   0  0  0  0  0  0  0  0  0  0  0  0
   -1.9740   -0.0634    0.1968 P   0  0  0  0  0  0  0  0  0  0  0  0
   -1.3453    1.4099   -0.9302 S   0  0  0  0  0  0  0  0  0  0  0  0
   -1.3625    0.0198    1.6428 O   0  0  0  0  0  0  0  0  0  0  0  0
   -1.3286   -1.0283    2.6464 C   0  0  0  0  0  0  0  0  0  0  0  0
   -2.6865   -1.6285    2.9363 C   0  0  0  0  0  0  0  0  0  0  0  0
   -3.5352   -0.0964    0.4850 O   0  0  0  0  0  0  0  0  0  0  0  0
   -4.5290   -0.1927   -0.5542 C   0  0  0  0  0  0  0  0  0  0  0  0
   -4.9972    1.1807   -0.9945 C   0  0  0  0  0  0  0  0  0  0  0  0
    4.5570   -2.1251    0.3311 H   0  0  0  0  0  0  0  0  0  0  0  0
    3.9114   -1.8078   -1.2863 H   0  0  0  0  0  0  0  0  0  0  0  0
    5.6602   -1.8096   -1.0219 H   0  0  0  0  0  0  0  0  0  0  0  0
    4.6907    0.5095   -1.2147 H   0  0  0  0  0  0  0  0  0  0  0  0
    5.4950    0.2332    0.3613 H   0  0  0  0  0  0  0  0  0  0  0  0
    0.7993    2.6776    2.0963 H   0  0  0  0  0  0  0  0  0  0  0  0
    2.5497    2.3128    1.9814 H   0  0  0  0  0  0  0  0  0  0  0  0
    0.8611    3.5145   -0.2712 H   0  0  0  0  0  0  0  0  0  0  0  0
    1.9428    4.4460    0.7819 H   0  0  0  0  0  0  0  0  0  0  0  0
    2.6031    3.2253   -0.3206 H   0  0  0  0  0  0  0  0  0  0  0  0
    0.3242   -2.6589   -1.7388 H   0  0  0  0  0  0  0  0  0  0  0  0
    0.1264   -0.8707   -1.7947 H   0  0  0  0  0  0  0  0  0  0  0  0
   -0.6239   -1.7948    2.3106 H   0  0  0  0  0  0  0  0  0  0  0  0
   -0.9205   -0.5151    3.5185 H   0  0  0  0  0  0  0  0  0  0  0  0
   -2.5955   -2.3011    3.7838 H   0  0  0  0  0  0  0  0  0  0  0  0
   -3.4024   -0.8457    3.1726 H   0  0  0  0  0  0  0  0  0  0  0  0
   -3.0462   -2.1904    2.0771 H   0  0  0  0  0  0  0  0  0  0  0  0
   -4.1178   -0.7562   -1.3960 H   0  0  0  0  0  0  0  0  0  0  0  0
   -5.3431   -0.7603   -0.0992 H   0  0  0  0  0  0  0  0  0  0  0  0
   -5.7867    1.0708   -1.7309 H   0  0  0  0  0  0  0  0  0  0  0  0
   -5.3742    1.7383   -0.1417 H   0  0  0  0  0  0  0  0  0  0  0  0
   -4.1731    1.7364   -1.4371 H   0  0  0  0  0  0  0  0  0  0  0  0
  1  2  1  0  0  0  0
  2  3  1  0  0  0  0
  3  4  2  0  0  0  0
  4  5  2  0  0  0  0
  4  6  2  0  0  0  0
  6  7  1  0  0  0  0
  7  8  1  0  0  0  0
  4  9  1  0  0  0  0
  9 10  1  0  0  0  0
 10 11  1  0  0  0  0
 11 12  1  0  0  0  0
 12 13  2  0  0  0  0
 12 14  2  0  0  0  0
 14 15  1  0  0  0  0
 15 16  1  0  0  0  0
 12 17  2  0  0  0  0
 17 18  1  0  0  0  0
 18 19  1  0  0  0  0
  1 20  1  0  0  0  0
  1 21  1  0  0  0  0
  1 22  1  0  0  0  0
  2 23  1  0  0  0  0
  2 24  1  0  0  0  0
  7 25  1  0  0  0  0
  7 26  1  0  0  0  0
  8 27  1  0  0  0  0
  8 28  1  0  0  0  0
  8 29  1  0  0  0  0
 10 30  1  0  0  0  0
 10 31  1  0  0  0  0
 15 32  1  0  0  0  0
 15 33  1  0  0  0  0
 16 34  1  0  0  0  0
 16 35  1  0  0  0  0
 16 36  1  0  0  0  0
 18 37  1  0  0  0  0
 18 38  1  0  0  0  0
 19 39  1  0  0  0  0
 19 40  1  0  0  0  0
 19 41  1  0  0  0  0
M  END
