 xtb: 6.7.1 (edcfbbe)
          04092505213D

 41 40  0     0  0            999 V2000
    3.1269   -2.4589   -2.3416 C   0  0  0  0  0  0  0  0  0  0  0  0
    3.2184   -2.4156   -0.8296 C   0  0  0  0  0  0  0  0  0  0  0  0
    3.5330   -1.0800   -0.3654 O   0  0  0  0  0  0  0  0  0  0  0  0
    2.4519   -0.0427    0.1481 P   0  0  0  0  0  0  0  0  0  0  0  0
    3.2918    1.5544    0.8922 S   0  0  0  0  0  0  0  0  0  0  0  0
    1.4817   -0.8447    1.1393 O   0  0  0  0  0  0  0  0  0  0  0  0
    1.6607   -0.7886    2.5691 C   0  0  0  0  0  0  0  0  0  0  0  0
    2.8856   -1.5670    3.0036 C   0  0  0  0  0  0  0  0  0  0  0  0
    1.1369    0.2524   -1.4852 S   0  0  0  0  0  0  0  0  0  0  0  0
    0.3760    1.7655   -0.8455 C   0  0  0  0  0  0  0  0  0  0  0  0
   -0.7233    1.4705    0.5563 S   0  0  0  0  0  0  0  0  0  0  0  0
   -2.1930    0.3679   -0.5440 P   0  0  0  0  0  0  0  0  0  0  0  0
   -2.4904    0.9807   -2.3752 S   0  0  0  0  0  0  0  0  0  0  0  0
   -3.4490    0.4284    0.4249 O   0  0  0  0  0  0  0  0  0  0  0  0
   -4.1929    1.6524    0.6020 C   0  0  0  0  0  0  0  0  0  0  0  0
   -5.4976    1.3056    1.2897 C   0  0  0  0  0  0  0  0  0  0  0  0
   -1.7716   -1.1455   -0.4736 O   0  0  0  0  0  0  0  0  0  0  0  0
   -1.6358   -1.8705    0.7740 C   0  0  0  0  0  0  0  0  0  0  0  0
   -2.8685   -2.7105    1.0343 C   0  0  0  0  0  0  0  0  0  0  0  0
    4.0387   -2.0636   -2.7806 H   0  0  0  0  0  0  0  0  0  0  0  0
    2.9925   -3.4879   -2.6602 H   0  0  0  0  0  0  0  0  0  0  0  0
    2.2850   -1.8654   -2.6934 H   0  0  0  0  0  0  0  0  0  0  0  0
    4.0476   -3.0264   -0.4682 H   0  0  0  0  0  0  0  0  0  0  0  0
    2.2846   -2.7432   -0.3668 H   0  0  0  0  0  0  0  0  0  0  0  0
    1.7427    0.2610    2.8674 H   0  0  0  0  0  0  0  0  0  0  0  0
    0.7424   -1.2175    2.9718 H   0  0  0  0  0  0  0  0  0  0  0  0
    2.8124   -2.6036    2.6852 H   0  0  0  0  0  0  0  0  0  0  0  0
    3.7778   -1.1223    2.5629 H   0  0  0  0  0  0  0  0  0  0  0  0
    2.9714   -1.5280    4.0849 H   0  0  0  0  0  0  0  0  0  0  0  0
   -0.1976    2.1936   -1.6679 H   0  0  0  0  0  0  0  0  0  0  0  0
    1.1556    2.4459   -0.5015 H   0  0  0  0  0  0  0  0  0  0  0  0
   -3.5892    2.3343    1.2071 H   0  0  0  0  0  0  0  0  0  0  0  0
   -4.3623    2.1011   -0.3821 H   0  0  0  0  0  0  0  0  0  0  0  0
   -5.3000    0.8404    2.2510 H   0  0  0  0  0  0  0  0  0  0  0  0
   -6.0707    2.2141    1.4422 H   0  0  0  0  0  0  0  0  0  0  0  0
   -6.0730    0.6191    0.6749 H   0  0  0  0  0  0  0  0  0  0  0  0
   -0.7478   -2.4905    0.6368 H   0  0  0  0  0  0  0  0  0  0  0  0
   -1.4641   -1.1535    1.5816 H   0  0  0  0  0  0  0  0  0  0  0  0
   -2.7187   -3.2939    1.9374 H   0  0  0  0  0  0  0  0  0  0  0  0
   -3.7378   -2.0704    1.1587 H   0  0  0  0  0  0  0  0  0  0  0  0
   -3.0440   -3.3807    0.1975 H   0  0  0  0  0  0  0  0  0  0  0  0
  1  2  1  0  0  0  0
  2  3  1  0  0  0  0
  3  4  2  0  0  0  0
  4  5  2  0  0  0  0
  4  6  1  0  0  0  0
  6  7  1  0  0  0  0
  7  8  1  0  0  0  0
  4  9  1  0  0  0  0
  9 10  1  0  0  0  0
 10 11  1  0  0  0  0
 11 12  1  0  0  0  0
 12 13  2  0  0  0  0
 12 14  2  0  0  0  0
 14 15  1  0  0  0  0
 15 16  1  0  0  0  0
 12 17  2  0  0  0  0
 17 18  1  0  0  0  0
 18 19  1  0  0  0  0
  1 20  1  0  0  0  0
  1 21  1  0  0  0  0
  1 22  1  0  0  0  0
  2 23  1  0  0  0  0
  2 24  1  0  0  0  0
  7 25  1  0  0  0  0
  7 26  1  0  0  0  0
  8 27  1  0  0  0  0
  8 28  1  0  0  0  0
  8 29  1  0  0  0  0
 10 30  1  0  0  0  0
 10 31  1  0  0  0  0
 15 32  1  0  0  0  0
 15 33  1  0  0  0  0
 16 34  1  0  0  0  0
 16 35  1  0  0  0  0
 16 36  1  0  0  0  0
 18 37  1  0  0  0  0
 18 38  1  0  0  0  0
 19 39  1  0  0  0  0
 19 40  1  0  0  0  0
 19 41  1  0  0  0  0
M  END
