 xtb: 6.7.1 (edcfbbe)
          04092507313D

 38 37  0     0  0            999 V2000
    1.4893   -3.9229   -1.8918 C   0  0  0  0  0  0  0  0  0  0  0  0
    2.2629   -3.6038   -0.6220 C   0  0  0  0  0  0  0  0  0  0  0  0
    1.9274   -2.2931   -0.1254 O   0  0  0  0  0  0  0  0  0  0  0  0
    2.5262   -1.2504   -0.6672 C   0  0  0  0  0  0  0  0  0  0  0  0
    3.3781   -1.3110   -1.5237 O   0  0  0  0  0  0  0  0  0  0  0  0
    1.9892    0.0510   -0.1014 C   0  0  0  0  0  0  0  0  0  0  0  0
    0.9108    0.5879   -1.0488 C   0  0  0  0  0  0  0  0  0  0  0  0
    1.3360    0.7272   -2.0468 H   0  0  0  0  0  0  0  0  0  0  0  0
    0.3505    1.9094   -0.5561 C   0  0  0  0  0  0  0  0  0  0  0  0
   -0.8319    2.0627   -0.3162 O   0  0  0  0  0  0  0  0  0  0  0  0
    1.2703    2.8203   -0.4370 O   0  0  0  0  0  0  0  0  0  0  0  0
    0.9019    4.1037    0.1192 C   0  0  0  0  0  0  0  0  0  0  0  0
    0.9966    4.0670    1.6354 C   0  0  0  0  0  0  0  0  0  0  0  0
   -0.4809   -0.5685   -1.2698 S   0  0  0  0  0  0  0  0  0  0  0  0
   -1.6291   -0.2061    0.4853 P   0  0  0  0  0  0  0  0  0  0  0  0
   -0.8010    0.4297    2.1560 S   0  0  0  0  0  0  0  0  0  0  0  0
   -3.0236    0.4132    0.0571 O   0  0  0  0  0  0  0  0  0  0  0  0
   -3.5039    1.7114    0.4107 C   0  0  0  0  0  0  0  0  0  0  0  0
   -2.2215   -1.6850    0.6681 O   0  0  0  0  0  0  0  0  0  0  0  0
   -1.3881   -2.7458    1.1428 C   0  0  0  0  0  0  0  0  0  0  0  0
    0.4208   -3.8137   -1.7249 H   0  0  0  0  0  0  0  0  0  0  0  0
    1.7861   -3.2463   -2.6896 H   0  0  0  0  0  0  0  0  0  0  0  0
    1.7031   -4.9425   -2.1943 H   0  0  0  0  0  0  0  0  0  0  0  0
    3.3396   -3.6369   -0.8099 H   0  0  0  0  0  0  0  0  0  0  0  0
    1.9970   -4.2795    0.1910 H   0  0  0  0  0  0  0  0  0  0  0  0
    2.7974    0.7809   -0.0501 H   0  0  0  0  0  0  0  0  0  0  0  0
    1.5713   -0.1242    0.8912 H   0  0  0  0  0  0  0  0  0  0  0  0
    1.6206    4.8004   -0.3113 H   0  0  0  0  0  0  0  0  0  0  0  0
   -0.1130    4.3474   -0.2043 H   0  0  0  0  0  0  0  0  0  0  0  0
    0.3274    3.3087    2.0388 H   0  0  0  0  0  0  0  0  0  0  0  0
    2.0109    3.8328    1.9451 H   0  0  0  0  0  0  0  0  0  0  0  0
    0.7142    5.0346    2.0363 H   0  0  0  0  0  0  0  0  0  0  0  0
   -2.9967    2.0761    1.3055 H   0  0  0  0  0  0  0  0  0  0  0  0
   -4.5690    1.5955    0.5990 H   0  0  0  0  0  0  0  0  0  0  0  0
   -3.3271    2.3971   -0.4158 H   0  0  0  0  0  0  0  0  0  0  0  0
   -2.0114   -3.6358    1.1289 H   0  0  0  0  0  0  0  0  0  0  0  0
   -1.0528   -2.5272    2.1583 H   0  0  0  0  0  0  0  0  0  0  0  0
   -0.5202   -2.8716    0.4942 H   0  0  0  0  0  0  0  0  0  0  0  0
  1  2  1  0  0  0  0
  2  3  1  0  0  0  0
  3  4  1  0  0  0  0
  4  5  2  0  0  0  0
  4  6  1  0  0  0  0
  6  7  1  0  0  0  0
  7  8  1  0  0  0  0
  7  9  1  0  0  0  0
  9 10  2  0  0  0  0
  9 11  4  0  0  0  0
 11 12  1  0  0  0  0
 12 13  1  0  0  0  0
  7 14  1  0  0  0  0
 14 15  1  0  0  0  0
 15 16  2  0  0  0  0
 15 17  2  0  0  0  0
 17 18  1  0  0  0  0
 15 19  1  0  0  0  0
 19 20  1  0  0  0  0
  1 21  1  0  0  0  0
  1 22  1  0  0  0  0
  1 23  1  0  0  0  0
  2 24  1  0  0  0  0
  2 25  1  0  0  0  0
  6 26  1  0  0  0  0
  6 27  1  0  0  0  0
 12 28  1  0  0  0  0
 12 29  1  0  0  0  0
 13 30  1  0  0  0  0
 13 31  1  0  0  0  0
 13 32  1  0  0  0  0
 18 33  1  0  0  0  0
 18 34  1  0  0  0  0
 18 35  1  0  0  0  0
 20 36  1  0  0  0  0
 20 37  1  0  0  0  0
 20 38  1  0  0  0  0
M  END
