  19
 
 C         -3.5997050080       -0.1221567118        0.1430852574
 C         -2.2030007645       -0.5065034772       -0.3271740049
 C         -1.1453742777        0.4542953606        0.2035596588
 O          0.1218422762        0.0401868281       -0.2721236062
 C          1.1784878664        0.8717674162        0.1552766155
 C          2.4973079006        0.2891438536       -0.3411576344
 O          2.8994419421       -0.7432598471        0.5325065445
 H         -4.3306888970       -0.8272776347       -0.2417208729
 H         -3.6511644561       -0.1278133203        1.2291042348
 H         -3.8600085796        0.8732723055       -0.2083690351
 H         -2.1555494963       -0.5014913467       -1.4168600879
 H         -1.9514470123       -1.5120702622        0.0120831780
 H         -1.3501623662        1.4807790110       -0.1393260225
 H         -1.1457630275        0.4568692174        1.3044632096
 H          1.0408310937        1.8862148588       -0.2475033782
 H          1.2010347796        0.9245258516        1.2530007477
 H          3.2533140283        1.0846073368       -0.3590067792
 H          2.3407806246       -0.0927819246       -1.3557448223
 H          3.6353500843       -1.2312995895        0.1377359394
          19
        -24.95197810
 C         -3.5362989755       -0.0227877372       -0.1548808762
 C         -2.1287891420        0.4387987719        0.2014502336
 C         -1.1017876032       -0.6551570140       -0.0985300249
 O          0.2002728593       -0.3737255447        0.3808455803
 C          0.8942287127        0.6389047995       -0.3270875188
 C          2.3393162542        0.6408775970        0.1709977646
 O          3.0200293408       -0.5451498310       -0.1611709198
 H         -4.2544649977        0.7651495744        0.0538781932
 H         -3.5974603338       -0.2753349156       -1.2108463256
 H         -3.8079759849       -0.9012025859        0.4250678396
 H         -2.0724040486        0.6849941847        1.2635058566
 H         -1.8860053178        1.3374889396       -0.3684640682
 H         -1.3856236902       -1.5775652474        0.4144609350
 H         -1.0644116250       -0.8487826722       -1.1806820955
 H          0.8689715278        0.4242094910       -1.4046122096
 H          0.4470162603        1.6235470863       -0.1455729357
 H          2.3380331905        0.7886436790        1.2582704807
 H          2.8911065818        1.4533300244       -0.3040020630
 H          2.5103527404       -1.2893692363        0.1911889230
