 xtb: 6.7.1 (edcfbbe)
          04092505213D

 41 40  0     0  0            999 V2000
    3.3123    0.6246   -2.6538 C   0  0  0  0  0  0  0  0  0  0  0  0
    1.9295    0.9141   -2.1119 C   0  0  0  0  0  0  0  0  0  0  0  0
    1.4345   -0.1775   -1.3169 O   0  0  0  0  0  0  0  0  0  0  0  0
    2.0517   -0.5487    0.0944 P   0  0  0  0  0  0  0  0  0  0  0  0
    2.6844    0.9703    1.1698 S   0  0  0  0  0  0  0  0  0  0  0  0
    3.1385   -1.6201   -0.3517 O   0  0  0  0  0  0  0  0  0  0  0  0
    3.7376   -2.6269    0.4848 C   0  0  0  0  0  0  0  0  0  0  0  0
    4.3138   -2.0702    1.7701 C   0  0  0  0  0  0  0  0  0  0  0  0
    0.5519   -1.7626    0.9403 S   0  0  0  0  0  0  0  0  0  0  0  0
   -0.2507   -0.5847    2.0790 C   0  0  0  0  0  0  0  0  0  0  0  0
   -2.0164   -0.3658    1.7370 S   0  0  0  0  0  0  0  0  0  0  0  0
   -1.8280    0.7678   -0.0210 P   0  0  0  0  0  0  0  0  0  0  0  0
   -0.5156    2.2186   -0.0698 S   0  0  0  0  0  0  0  0  0  0  0  0
   -3.3438    1.2516   -0.0927 O   0  0  0  0  0  0  0  0  0  0  0  0
   -3.7401    2.2579   -1.0478 C   0  0  0  0  0  0  0  0  0  0  0  0
   -5.2108    2.5444   -0.8275 C   0  0  0  0  0  0  0  0  0  0  0  0
   -1.5628   -0.2203   -1.2405 O   0  0  0  0  0  0  0  0  0  0  0  0
   -2.1320   -1.5422   -1.4093 C   0  0  0  0  0  0  0  0  0  0  0  0
   -3.6461   -1.5416   -1.4333 C   0  0  0  0  0  0  0  0  0  0  0  0
    3.6186    1.4338   -3.3091 H   0  0  0  0  0  0  0  0  0  0  0  0
    4.0187    0.5477   -1.8279 H   0  0  0  0  0  0  0  0  0  0  0  0
    3.3109   -0.3126   -3.2039 H   0  0  0  0  0  0  0  0  0  0  0  0
    1.1871    1.0175   -2.9049 H   0  0  0  0  0  0  0  0  0  0  0  0
    1.9287    1.8220   -1.4986 H   0  0  0  0  0  0  0  0  0  0  0  0
    2.9790   -3.3851    0.6974 H   0  0  0  0  0  0  0  0  0  0  0  0
    4.5179   -3.0518   -0.1493 H   0  0  0  0  0  0  0  0  0  0  0  0
    4.8235   -2.8631    2.3078 H   0  0  0  0  0  0  0  0  0  0  0  0
    5.0177   -1.2692    1.5570 H   0  0  0  0  0  0  0  0  0  0  0  0
    3.5196   -1.6684    2.3975 H   0  0  0  0  0  0  0  0  0  0  0  0
    0.2718    0.3745    2.0132 H   0  0  0  0  0  0  0  0  0  0  0  0
   -0.1902   -0.9962    3.0832 H   0  0  0  0  0  0  0  0  0  0  0  0
   -3.1247    3.1492   -0.8868 H   0  0  0  0  0  0  0  0  0  0  0  0
   -3.5488    1.8809   -2.0574 H   0  0  0  0  0  0  0  0  0  0  0  0
   -5.3700    2.8941    0.1883 H   0  0  0  0  0  0  0  0  0  0  0  0
   -5.5335    3.3091   -1.5264 H   0  0  0  0  0  0  0  0  0  0  0  0
   -5.7946    1.6420   -0.9832 H   0  0  0  0  0  0  0  0  0  0  0  0
   -1.7114   -1.8698   -2.3615 H   0  0  0  0  0  0  0  0  0  0  0  0
   -1.7574   -2.1832   -0.6063 H   0  0  0  0  0  0  0  0  0  0  0  0
   -4.0159   -0.8675   -2.2022 H   0  0  0  0  0  0  0  0  0  0  0  0
   -3.9903   -2.5485   -1.6490 H   0  0  0  0  0  0  0  0  0  0  0  0
   -4.0418   -1.2329   -0.4676 H   0  0  0  0  0  0  0  0  0  0  0  0
  1  2  1  0  0  0  0
  2  3  1  0  0  0  0
  3  4  2  0  0  0  0
  4  5  2  0  0  0  0
  4  6  2  0  0  0  0
  6  7  1  0  0  0  0
  7  8  1  0  0  0  0
  4  9  1  0  0  0  0
  9 10  1  0  0  0  0
 10 11  1  0  0  0  0
 11 12  1  0  0  0  0
 12 13  2  0  0  0  0
 12 14  1  0  0  0  0
 14 15  1  0  0  0  0
 15 16  1  0  0  0  0
 12 17  2  0  0  0  0
 17 18  1  0  0  0  0
 18 19  1  0  0  0  0
  1 20  1  0  0  0  0
  1 21  1  0  0  0  0
  1 22  1  0  0  0  0
  2 23  1  0  0  0  0
  2 24  1  0  0  0  0
  7 25  1  0  0  0  0
  7 26  1  0  0  0  0
  8 27  1  0  0  0  0
  8 28  1  0  0  0  0
  8 29  1  0  0  0  0
 10 30  1  0  0  0  0
 10 31  1  0  0  0  0
 15 32  1  0  0  0  0
 15 33  1  0  0  0  0
 16 34  1  0  0  0  0
 16 35  1  0  0  0  0
 16 36  1  0  0  0  0
 18 37  1  0  0  0  0
 18 38  1  0  0  0  0
 19 39  1  0  0  0  0
 19 40  1  0  0  0  0
 19 41  1  0  0  0  0
M  END
