 xtb: 6.7.1 (edcfbbe)
          04092505203D

 41 40  0     0  0            999 V2000
    3.5690    0.0517    2.3081 C   0  0  0  0  0  0  0  0  0  0  0  0
    4.0792   -0.6689    1.0777 C   0  0  0  0  0  0  0  0  0  0  0  0
    3.5973   -0.0848   -0.1551 O   0  0  0  0  0  0  0  0  0  0  0  0
    2.0778    0.0729   -0.5892 P   0  0  0  0  0  0  0  0  0  0  0  0
    1.9573    0.2750   -2.5304 S   0  0  0  0  0  0  0  0  0  0  0  0
    1.4639    1.2762    0.2685 O   0  0  0  0  0  0  0  0  0  0  0  0
    1.4605    2.6250   -0.2201 C   0  0  0  0  0  0  0  0  0  0  0  0
    2.8499    3.2273   -0.1998 C   0  0  0  0  0  0  0  0  0  0  0  0
    1.1496   -1.6002    0.2789 S   0  0  0  0  0  0  0  0  0  0  0  0
   -0.1577   -1.9324   -0.9491 C   0  0  0  0  0  0  0  0  0  0  0  0
   -1.7961   -1.9814   -0.2078 S   0  0  0  0  0  0  0  0  0  0  0  0
   -1.9779    0.1090    0.1647 P   0  0  0  0  0  0  0  0  0  0  0  0
   -1.4596    1.2214   -1.3669 S   0  0  0  0  0  0  0  0  0  0  0  0
   -1.1048    0.5104    1.4129 O   0  0  0  0  0  0  0  0  0  0  0  0
   -1.3966    0.2241    2.8046 C   0  0  0  0  0  0  0  0  0  0  0  0
   -1.3725   -1.2570    3.1212 C   0  0  0  0  0  0  0  0  0  0  0  0
   -3.4499    0.2547    0.7376 O   0  0  0  0  0  0  0  0  0  0  0  0
   -4.6262   -0.3408    0.1588 C   0  0  0  0  0  0  0  0  0  0  0  0
   -4.8430    0.0715   -1.2817 C   0  0  0  0  0  0  0  0  0  0  0  0
    3.9803   -0.4243    3.1927 H   0  0  0  0  0  0  0  0  0  0  0  0
    3.8701    1.0958    2.2894 H   0  0  0  0  0  0  0  0  0  0  0  0
    2.4825   -0.0015    2.3481 H   0  0  0  0  0  0  0  0  0  0  0  0
    3.7846   -1.7213    1.0944 H   0  0  0  0  0  0  0  0  0  0  0  0
    5.1633   -0.5899    0.9831 H   0  0  0  0  0  0  0  0  0  0  0  0
    1.0486    2.6299   -1.2353 H   0  0  0  0  0  0  0  0  0  0  0  0
    0.7722    3.1485    0.4458 H   0  0  0  0  0  0  0  0  0  0  0  0
    3.2522    3.2187    0.8096 H   0  0  0  0  0  0  0  0  0  0  0  0
    3.5065    2.6499   -0.8509 H   0  0  0  0  0  0  0  0  0  0  0  0
    2.8027    4.2497   -0.5613 H   0  0  0  0  0  0  0  0  0  0  0  0
    0.0187   -2.9188   -1.3705 H   0  0  0  0  0  0  0  0  0  0  0  0
   -0.1163   -1.1599   -1.7230 H   0  0  0  0  0  0  0  0  0  0  0  0
   -0.6056    0.7584    3.3336 H   0  0  0  0  0  0  0  0  0  0  0  0
   -2.3666    0.6631    3.0443 H   0  0  0  0  0  0  0  0  0  0  0  0
   -0.4433   -1.7055    2.7764 H   0  0  0  0  0  0  0  0  0  0  0  0
   -1.4518   -1.3848    4.1963 H   0  0  0  0  0  0  0  0  0  0  0  0
   -2.2063   -1.7660    2.6432 H   0  0  0  0  0  0  0  0  0  0  0  0
   -4.5340   -1.4273    0.2392 H   0  0  0  0  0  0  0  0  0  0  0  0
   -5.4342    0.0140    0.8011 H   0  0  0  0  0  0  0  0  0  0  0  0
   -5.7801   -0.3429   -1.6390 H   0  0  0  0  0  0  0  0  0  0  0  0
   -4.8717    1.1553   -1.3671 H   0  0  0  0  0  0  0  0  0  0  0  0
   -4.0307   -0.2986   -1.9056 H   0  0  0  0  0  0  0  0  0  0  0  0
  1  2  1  0  0  0  0
  2  3  1  0  0  0  0
  3  4  2  0  0  0  0
  4  5  2  0  0  0  0
  4  6  1  0  0  0  0
  6  7  1  0  0  0  0
  7  8  1  0  0  0  0
  4  9  1  0  0  0  0
  9 10  1  0  0  0  0
 10 11  1  0  0  0  0
 11 12  1  0  0  0  0
 12 13  2  0  0  0  0
 12 14  2  0  0  0  0
 14 15  1  0  0  0  0
 15 16  1  0  0  0  0
 12 17  2  0  0  0  0
 17 18  1  0  0  0  0
 18 19  1  0  0  0  0
  1 20  1  0  0  0  0
  1 21  1  0  0  0  0
  1 22  1  0  0  0  0
  2 23  1  0  0  0  0
  2 24  1  0  0  0  0
  7 25  1  0  0  0  0
  7 26  1  0  0  0  0
  8 27  1  0  0  0  0
  8 28  1  0  0  0  0
  8 29  1  0  0  0  0
 10 30  1  0  0  0  0
 10 31  1  0  0  0  0
 15 32  1  0  0  0  0
 15 33  1  0  0  0  0
 16 34  1  0  0  0  0
 16 35  1  0  0  0  0
 16 36  1  0  0  0  0
 18 37  1  0  0  0  0
 18 38  1  0  0  0  0
 19 39  1  0  0  0  0
 19 40  1  0  0  0  0
 19 41  1  0  0  0  0
M  END
