  26
 
 C         -0.0063701111       -2.5356996222       -0.0020498198
 C         -0.0030987369       -1.2024214122       -0.0006622200
 C         -1.2566389666       -0.4271247399       -0.0207153286
 C         -1.3790293141        0.7244739280        0.7547965613
 C         -2.5552830480        1.4504110374        0.7557528037
 C         -3.6258790513        1.0430524898       -0.0236144079
 C         -3.5128893324       -0.0965660356       -0.8024880989
 C         -2.3388419964       -0.8275115026       -0.8003005392
 C          1.2543610073       -0.4334984212        0.0204615008
 C          1.3809028160        0.7208548622       -0.7504223221
 C          2.5605648109        1.4411198886       -0.7504222690
 C          3.6305484140        1.0253693413        0.0253509552
 C          3.5136361957       -0.1171923758        0.7992784130
 C          2.3360334722       -0.8425374637        0.7961074823
 H          0.9078968240       -3.1035026648       -0.0069640208
 H         -0.9233875882       -3.0990749279        0.0014631734
 H         -0.5469816392        1.0423369737        1.3666869499
 H         -2.6374258798        2.3374729314        1.3661422772
 H         -4.5427069428        1.6130459260       -0.0257355926
 H         -4.3423834742       -0.4157292204       -1.4161334176
 H         -2.2498098838       -1.7065259681       -1.4213225146
 H          0.5488445059        1.0458004669       -1.3586613153
 H          2.6458074233        2.3305244402       -1.3569443917
 H          4.5502642795        1.5906950159        0.0275169581
 H          4.3431005804       -0.4435527509        1.4092315536
 H          2.2440415891       -1.7235488738        1.4137810484
          26
        -36.04766037
 C         -0.0004951511       -2.5255657998        0.0006411924
 C         -0.0000215810       -1.1923525777       -0.0003129292
 C         -1.2548348800       -0.4201925217        0.0449564568
 C         -1.3408270949        0.7294868833        0.8279773511
 C         -2.5187694903        1.4500448166        0.8924480816
 C         -3.6268666141        1.0398581666        0.1690809649
 C         -3.5501102050       -0.0976271566       -0.6174357004
 C         -2.3746582811       -0.8236638214       -0.6779136221
 C          1.2550475008       -0.4206644068       -0.0458504182
 C          1.3411956255        0.7292694385       -0.8284815949
 C          2.5189946776        1.4501727107       -0.8920977347
 C          3.6267744302        1.0400652503       -0.1681947613
 C          3.5499450312       -0.0978283933        0.6177181499
 C          2.3747195581       -0.8242851684        0.6772033973
 H          0.9134278629       -3.0915470712       -0.0512848047
 H         -0.9149603089       -3.0905883835        0.0535745779
 H         -0.4789124693        1.0500642162        1.3955832750
 H         -2.5726365898        2.3358288529        1.5078993410
 H         -4.5449515443        1.6059566234        0.2161393255
 H         -4.4087267086       -0.4182387903       -1.1886966057
 H         -2.3141107973       -1.7009481346       -1.3047060569
 H          0.4796075251        1.0496917950       -1.3966194846
 H          2.5728026955        2.3362344421       -1.5071255791
 H          4.5446507879        1.6065873377       -0.2141172203
 H          4.4085100117       -0.4186087400        1.1890355818
 H          2.3141849986       -1.7019883890        1.3034299361
