41
 xtb: 6.7.1 (edcfbbe)
C            4.07860691497853        1.63963692540929       -1.53258602235239
C            2.66759694902347        1.84374838535597       -1.03752522172085
O            1.96481448091752        0.56856481876982       -0.81837675896140
P            2.35414144246540       -0.39927258979284        0.40524775436316
S            2.82891908547657        0.46249753412250        2.08709086485261
O            3.46669350018108       -1.33944387692514       -0.28398190296717
C            4.49738240807778       -2.05265825812767        0.48362801659441
C            3.95777912672253       -3.30026336275558        1.13748048900264
S            0.69201620138582       -1.70688458508206        0.44612255342551
C           -0.40676027014335       -0.83417610681590        1.62818349182628
S           -1.10168743334971        0.80173502771691        1.15790519822105
P           -2.47048806548307        0.28912891868764       -0.38320547062876
S           -1.77865158799374       -0.02530126479263       -2.17462729197448
O           -3.52083843489009        1.50555477279219       -0.24058295112069
C           -3.53575743827161        2.65910286681354       -1.14842153443685
C           -2.44922739882602        3.64713560409588       -0.80251278912891
O           -3.24652132532104       -0.92735313010551        0.32221893928011
C           -4.01435813114129       -1.91162488876342       -0.45875352001040
C           -5.31419555937607       -1.33129663602432       -0.95738716047364
H            4.71069901377948        1.16941796311059       -0.77333216857571
H            4.09249597923304        1.02627484573163       -2.43807221158108
H            4.50782750673374        2.61818329663904       -1.77179532473578
H            2.04801178384314        2.34746672549662       -1.78205411084354
H            2.63830177378158        2.41410157539675       -0.10396188744010
H            5.25466871432874       -2.28827094771533       -0.26685040272823
H            4.92292586265900       -1.35825112471972        1.21415849519356
H            4.79131090000234       -3.83778203568706        1.60113484037383
H            3.22915624953867       -3.06401123161884        1.91782325263619
H            3.49044061487669       -3.95954537766297        0.40030191373920
H            0.14467624465006       -0.64455378539023        2.55407715924462
H           -1.22206928554133       -1.53207256031314        1.83484702995170
H           -3.44756387422446        2.29320405457614       -2.17553018597408
H           -4.53053808312705        3.08595325418652       -1.00497357801097
H           -2.55918005032394        4.53046533585936       -1.44004207973409
H           -2.52527864983499        3.96460614458970        0.24165467213580
H           -1.45387171118149        3.22600010543663       -0.97857225378199
H           -3.38158468530073       -2.26994974247988       -1.27641421823840
H           -4.17797962583642       -2.72580075560406        0.24989168290628
H           -5.89132908163394       -2.12705277369188       -1.43981647072219
H           -5.90570275012215       -0.92877178401993       -0.13006218568414
H           -5.14484812436000       -0.53986676922165       -1.69388472028770
