 xtb: 6.7.1 (edcfbbe)
          04032520273D

 17 17  0     0  0            999 V2000
   -1.8427   -0.0001    0.0818 C   0  0  0  0  0  0  0  0  0  0  0  0
   -1.0583    1.2493   -0.3009 C   0  0  0  0  0  0  0  0  0  0  0  0
    0.3071    1.2645    0.3959 C   0  0  0  0  0  0  0  0  0  0  0  0
    1.0665    0.0002    0.1001 C   0  0  0  0  0  0  0  0  0  0  0  0
    2.1988    0.0003   -0.3447 O   0  0  0  0  0  0  0  0  0  0  0  0
    0.3074   -1.2642    0.3959 C   0  0  0  0  0  0  0  0  0  0  0  0
   -1.0580   -1.2494   -0.3008 C   0  0  0  0  0  0  0  0  0  0  0  0
   -2.8054   -0.0002   -0.4309 H   0  0  0  0  0  0  0  0  0  0  0  0
   -2.0319   -0.0001    1.1568 H   0  0  0  0  0  0  0  0  0  0  0  0
   -0.9077    1.2698   -1.3823 H   0  0  0  0  0  0  0  0  0  0  0  0
   -1.6114    2.1467   -0.0218 H   0  0  0  0  0  0  0  0  0  0  0  0
    0.8988    2.1249    0.0802 H   0  0  0  0  0  0  0  0  0  0  0  0
    0.1578    1.3199    1.4762 H   0  0  0  0  0  0  0  0  0  0  0  0
    0.8993   -2.1245    0.0801 H   0  0  0  0  0  0  0  0  0  0  0  0
    0.1581   -1.3198    1.4761 H   0  0  0  0  0  0  0  0  0  0  0  0
   -0.9074   -1.2699   -1.3823 H   0  0  0  0  0  0  0  0  0  0  0  0
   -1.6109   -2.1469   -0.0218 H   0  0  0  0  0  0  0  0  0  0  0  0
  1  2  1  0  0  0  0
  2  3  1  0  0  0  0
  3  4  1  0  0  0  0
  4  5  2  0  0  0  0
  4  6  1  0  0  0  0
  1  7  1  0  0  0  0
  6  7  1  0  0  0  0
  1  8  1  0  0  0  0
  1  9  1  0  0  0  0
  2 10  1  0  0  0  0
  2 11  1  0  0  0  0
  3 12  1  0  0  0  0
  3 13  1  0  0  0  0
  6 14  1  0  0  0  0
  6 15  1  0  0  0  0
  7 16  1  0  0  0  0
  7 17  1  0  0  0  0
M  END
