38
 xtb: 6.7.1 (edcfbbe)
C            5.50423160447192       -0.43337290943120       -0.85272605473219
C            4.76459429441236       -1.59355478049675       -1.47434472330389
O            3.52242589587839       -1.87452492644397       -0.74426090295168
C            2.44908043786350       -1.14032452602709       -1.06727499083872
O            2.44453155078645       -0.25355944751956       -1.90128708133249
C            1.22576116778819       -1.62294928243439       -0.32329352464438
C            0.21334679913853       -0.49928948671592       -0.07874192682021
H            0.16270169988251        0.14410564332465       -0.96687717616820
C            0.59687187896675        0.39298141545268        1.09543746249265
O           -0.16424912321541        0.80107112148121        1.94958595405925
O            1.89571053235163        0.69715120523337        1.03436036481189
C            2.39700427442842        1.61295214185295        2.06914137236242
C            3.85306233415179        1.85876617509793        1.77753357995102
S           -1.45044457601311       -1.25352794503750        0.14455385351991
P           -2.74248517453743        0.40328604279080       -0.17822967052943
S           -2.06876810620038        1.78252208246872       -1.36644280390645
O           -4.09089344650329       -0.37719994217579       -0.59647541868792
C           -4.22739589759144       -0.94296924084729       -1.92999320563780
O           -3.18680691643731        1.01313112904171        1.23639145656890
C           -3.67445688363072        0.15971853601191        2.31363187642230
H            6.44746067976968       -0.28883271080194       -1.38922432232501
H            4.92575008182388        0.49154178801536       -0.91966508110329
H            5.73496548043400       -0.63699345126826        0.19663265732614
H            5.32993792738154       -2.52304813227965       -1.38866699738876
H            4.51804154417351       -1.41525647966841       -2.52372748674843
H            1.51437638427037       -2.11640380391050        0.60714567849627
H            0.77946639650037       -2.38444087652614       -0.97578231610708
H            1.80369459547140        2.53015646012535        2.02027988045727
H            2.24351121386381        1.13613340915158        3.04119347920882
H            4.25233061024946        2.53861667106126        2.53609582465893
H            4.42490363325402        0.92766553258056        1.81495094411325
H            3.98579505416282        2.32318596475982        0.79638951984394
H           -3.45770529844910       -1.69970830005683       -2.10520759603237
H           -4.16168943820716       -0.15029330170139       -2.67965972066419
H           -5.21554121784008       -1.40221374897009       -1.95227308388424
H           -3.82141100953599        0.82417556865646        3.16485384619226
H           -2.92960479899225       -0.60183113863454        2.55953971432642
H           -4.62111027572545       -0.30411425737414        2.02744632177073
