 xtb: 6.7.1 (edcfbbe)
          04092507313D

 38 37  0     0  0            999 V2000
    3.5548   -2.9472    0.5219 C   0  0  0  0  0  0  0  0  0  0  0  0
    2.9531   -1.6190    0.9510 C   0  0  0  0  0  0  0  0  0  0  0  0
    2.6939   -0.7757   -0.1876 O   0  0  0  0  0  0  0  0  0  0  0  0
    1.5961   -0.9693   -0.8862 C   0  0  0  0  0  0  0  0  0  0  0  0
    0.7461   -1.7992   -0.6318 O   0  0  0  0  0  0  0  0  0  0  0  0
    1.4957   -0.0079   -2.0533 C   0  0  0  0  0  0  0  0  0  0  0  0
    0.2636    0.8895   -1.9004 C   0  0  0  0  0  0  0  0  0  0  0  0
    0.1647    1.5239   -2.7856 H   0  0  0  0  0  0  0  0  0  0  0  0
    0.3470    1.7759   -0.6731 C   0  0  0  0  0  0  0  0  0  0  0  0
   -0.5790    1.8873    0.1107 O   0  0  0  0  0  0  0  0  0  0  0  0
    1.4923    2.3846   -0.5774 O   0  0  0  0  0  0  0  0  0  0  0  0
    1.7601    3.1923    0.5911 C   0  0  0  0  0  0  0  0  0  0  0  0
    2.3671    2.3366    1.6902 C   0  0  0  0  0  0  0  0  0  0  0  0
   -1.3019   -0.0496   -1.8197 S   0  0  0  0  0  0  0  0  0  0  0  0
   -1.6969   -0.3141    0.2558 P   0  0  0  0  0  0  0  0  0  0  0  0
   -0.4658   -0.4392    1.7916 S   0  0  0  0  0  0  0  0  0  0  0  0
   -2.9803    0.5918    0.5113 O   0  0  0  0  0  0  0  0  0  0  0  0
   -3.0612    1.6700    1.4418 C   0  0  0  0  0  0  0  0  0  0  0  0
   -2.5637   -1.6587    0.1195 O   0  0  0  0  0  0  0  0  0  0  0  0
   -1.9948   -2.9514   -0.0792 C   0  0  0  0  0  0  0  0  0  0  0  0
    4.4562   -2.7786   -0.0610 H   0  0  0  0  0  0  0  0  0  0  0  0
    3.8006   -3.5277    1.4047 H   0  0  0  0  0  0  0  0  0  0  0  0
    2.8407   -3.5061   -0.0788 H   0  0  0  0  0  0  0  0  0  0  0  0
    3.6505   -1.0437    1.5595 H   0  0  0  0  0  0  0  0  0  0  0  0
    2.0174   -1.7659    1.4986 H   0  0  0  0  0  0  0  0  0  0  0  0
    1.3853   -0.5908   -2.9679 H   0  0  0  0  0  0  0  0  0  0  0  0
    2.3945    0.6062   -2.0934 H   0  0  0  0  0  0  0  0  0  0  0  0
    2.4614    3.9484    0.2386 H   0  0  0  0  0  0  0  0  0  0  0  0
    0.8273    3.6541    0.9234 H   0  0  0  0  0  0  0  0  0  0  0  0
    2.6071    2.9629    2.5427 H   0  0  0  0  0  0  0  0  0  0  0  0
    1.6620    1.5687    2.0067 H   0  0  0  0  0  0  0  0  0  0  0  0
    3.2711    1.8536    1.3304 H   0  0  0  0  0  0  0  0  0  0  0  0
   -4.0580    1.6216    1.8746 H   0  0  0  0  0  0  0  0  0  0  0  0
   -2.9112    2.6104    0.9140 H   0  0  0  0  0  0  0  0  0  0  0  0
   -2.3024    1.5599    2.2192 H   0  0  0  0  0  0  0  0  0  0  0  0
   -1.5839   -3.0347   -1.0851 H   0  0  0  0  0  0  0  0  0  0  0  0
   -2.8121   -3.6536    0.0654 H   0  0  0  0  0  0  0  0  0  0  0  0
   -1.2007   -3.1293    0.6475 H   0  0  0  0  0  0  0  0  0  0  0  0
  1  2  1  0  0  0  0
  2  3  1  0  0  0  0
  3  4  4  0  0  0  0
  4  5  2  0  0  0  0
  4  6  1  0  0  0  0
  6  7  1  0  0  0  0
  7  8  1  0  0  0  0
  7  9  1  0  0  0  0
  9 10  2  0  0  0  0
  9 11  4  0  0  0  0
 11 12  1  0  0  0  0
 12 13  1  0  0  0  0
  7 14  1  0  0  0  0
 14 15  1  0  0  0  0
 15 16  2  0  0  0  0
 15 17  1  0  0  0  0
 17 18  1  0  0  0  0
 15 19  1  0  0  0  0
 19 20  1  0  0  0  0
  1 21  1  0  0  0  0
  1 22  1  0  0  0  0
  1 23  1  0  0  0  0
  2 24  1  0  0  0  0
  2 25  1  0  0  0  0
  6 26  1  0  0  0  0
  6 27  1  0  0  0  0
 12 28  1  0  0  0  0
 12 29  1  0  0  0  0
 13 30  1  0  0  0  0
 13 31  1  0  0  0  0
 13 32  1  0  0  0  0
 18 33  1  0  0  0  0
 18 34  1  0  0  0  0
 18 35  1  0  0  0  0
 20 36  1  0  0  0  0
 20 37  1  0  0  0  0
 20 38  1  0  0  0  0
M  END
