 xtb: 6.7.1 (edcfbbe)
          04092505203D

 41 40  0     0  0            999 V2000
    5.3839   -0.1023   -0.9800 C   0  0  0  0  0  0  0  0  0  0  0  0
    4.4684   -0.8792   -0.0534 C   0  0  0  0  0  0  0  0  0  0  0  0
    3.4524   -0.0250    0.5069 O   0  0  0  0  0  0  0  0  0  0  0  0
    2.0118    0.1325   -0.1499 P   0  0  0  0  0  0  0  0  0  0  0  0
    1.9653    0.6532   -2.0435 S   0  0  0  0  0  0  0  0  0  0  0  0
    1.3368    1.1198    0.8886 O   0  0  0  0  0  0  0  0  0  0  0  0
    1.3971    2.5518    0.7175 C   0  0  0  0  0  0  0  0  0  0  0  0
    2.8170    3.0715    0.7693 C   0  0  0  0  0  0  0  0  0  0  0  0
    1.1393   -1.7294    0.3179 S   0  0  0  0  0  0  0  0  0  0  0  0
   -0.0113   -1.9274   -1.0839 C   0  0  0  0  0  0  0  0  0  0  0  0
   -1.7299   -2.1480   -0.5634 S   0  0  0  0  0  0  0  0  0  0  0  0
   -2.0999   -0.2176    0.1701 P   0  0  0  0  0  0  0  0  0  0  0  0
   -1.4590    1.3199   -0.8775 S   0  0  0  0  0  0  0  0  0  0  0  0
   -1.4847   -0.3665    1.6216 O   0  0  0  0  0  0  0  0  0  0  0  0
   -1.4286    0.7335    2.5532 C   0  0  0  0  0  0  0  0  0  0  0  0
   -2.6033    0.6878    3.5084 C   0  0  0  0  0  0  0  0  0  0  0  0
   -3.6612   -0.1831    0.4630 O   0  0  0  0  0  0  0  0  0  0  0  0
   -4.6231    0.2241   -0.5264 C   0  0  0  0  0  0  0  0  0  0  0  0
   -4.7027   -0.7539   -1.6802 C   0  0  0  0  0  0  0  0  0  0  0  0
    4.8228    0.2805   -1.8297 H   0  0  0  0  0  0  0  0  0  0  0  0
    5.8326    0.7328   -0.4494 H   0  0  0  0  0  0  0  0  0  0  0  0
    6.1671   -0.7603   -1.3418 H   0  0  0  0  0  0  0  0  0  0  0  0
    5.0113   -1.2622    0.8128 H   0  0  0  0  0  0  0  0  0  0  0  0
    3.9908   -1.7105   -0.5800 H   0  0  0  0  0  0  0  0  0  0  0  0
    0.9191    2.8051   -0.2350 H   0  0  0  0  0  0  0  0  0  0  0  0
    0.7938    2.9378    1.5405 H   0  0  0  0  0  0  0  0  0  0  0  0
    3.3771    2.6990   -0.0876 H   0  0  0  0  0  0  0  0  0  0  0  0
    2.8022    4.1565    0.7368 H   0  0  0  0  0  0  0  0  0  0  0  0
    3.3046    2.7387    1.6819 H   0  0  0  0  0  0  0  0  0  0  0  0
    0.2558   -2.8380   -1.6138 H   0  0  0  0  0  0  0  0  0  0  0  0
    0.0795   -1.0534   -1.7358 H   0  0  0  0  0  0  0  0  0  0  0  0
   -0.4779    0.6057    3.0754 H   0  0  0  0  0  0  0  0  0  0  0  0
   -1.4090    1.6714    1.9873 H   0  0  0  0  0  0  0  0  0  0  0  0
   -2.6222   -0.2683    4.0237 H   0  0  0  0  0  0  0  0  0  0  0  0
   -2.5023    1.4878    4.2352 H   0  0  0  0  0  0  0  0  0  0  0  0
   -3.5363    0.8115    2.9642 H   0  0  0  0  0  0  0  0  0  0  0  0
   -5.5621    0.2725    0.0266 H   0  0  0  0  0  0  0  0  0  0  0  0
   -4.3479    1.2212   -0.8849 H   0  0  0  0  0  0  0  0  0  0  0  0
   -3.7762   -0.7306   -2.2526 H   0  0  0  0  0  0  0  0  0  0  0  0
   -4.8589   -1.7638   -1.3096 H   0  0  0  0  0  0  0  0  0  0  0  0
   -5.5250   -0.4752   -2.3314 H   0  0  0  0  0  0  0  0  0  0  0  0
  1  2  1  0  0  0  0
  2  3  1  0  0  0  0
  3  4  2  0  0  0  0
  4  5  2  0  0  0  0
  4  6  2  0  0  0  0
  6  7  1  0  0  0  0
  7  8  1  0  0  0  0
  4  9  1  0  0  0  0
  9 10  1  0  0  0  0
 10 11  1  0  0  0  0
 11 12  1  0  0  0  0
 12 13  2  0  0  0  0
 12 14  2  0  0  0  0
 14 15  1  0  0  0  0
 15 16  1  0  0  0  0
 12 17  2  0  0  0  0
 17 18  1  0  0  0  0
 18 19  1  0  0  0  0
  1 20  1  0  0  0  0
  1 21  1  0  0  0  0
  1 22  1  0  0  0  0
  2 23  1  0  0  0  0
  2 24  1  0  0  0  0
  7 25  1  0  0  0  0
  7 26  1  0  0  0  0
  8 27  1  0  0  0  0
  8 28  1  0  0  0  0
  8 29  1  0  0  0  0
 10 30  1  0  0  0  0
 10 31  1  0  0  0  0
 15 32  1  0  0  0  0
 15 33  1  0  0  0  0
 16 34  1  0  0  0  0
 16 35  1  0  0  0  0
 16 36  1  0  0  0  0
 18 37  1  0  0  0  0
 18 38  1  0  0  0  0
 19 39  1  0  0  0  0
 19 40  1  0  0  0  0
 19 41  1  0  0  0  0
M  END
