 xtb: 6.7.1 (edcfbbe)
          04092513583D

 41 40  0     0  0            999 V2000
    5.8731   -0.7939   -0.3518 C   0  0  0  0  0  0  0  0  0  0  0  0
    5.0241   -0.0859   -1.3879 C   0  0  0  0  0  0  0  0  0  0  0  0
    3.6555   -0.5500   -1.3924 O   0  0  0  0  0  0  0  0  0  0  0  0
    2.6576   -0.2538   -0.1970 P   0  0  0  0  0  0  0  0  0  0  0  0
    2.8366    1.5180    0.6311 S   0  0  0  0  0  0  0  0  0  0  0  0
    2.9423   -1.4865    0.7680 O   0  0  0  0  0  0  0  0  0  0  0  0
    2.5296   -1.5105    2.1433 C   0  0  0  0  0  0  0  0  0  0  0  0
    1.0319   -1.6908    2.2849 C   0  0  0  0  0  0  0  0  0  0  0  0
    0.8347   -0.7385   -1.1636 S   0  0  0  0  0  0  0  0  0  0  0  0
    0.1101    0.9253   -1.3029 C   0  0  0  0  0  0  0  0  0  0  0  0
   -0.7692    1.4779    0.1866 S   0  0  0  0  0  0  0  0  0  0  0  0
   -2.4970    0.2845   -0.0484 P   0  0  0  0  0  0  0  0  0  0  0  0
   -3.1553    0.0053   -1.8779 S   0  0  0  0  0  0  0  0  0  0  0  0
   -3.5478    0.9122    0.9658 O   0  0  0  0  0  0  0  0  0  0  0  0
   -4.5279    1.8942    0.5857 C   0  0  0  0  0  0  0  0  0  0  0  0
   -3.9128    3.2534    0.3203 C   0  0  0  0  0  0  0  0  0  0  0  0
   -2.0291   -1.0146    0.7277 O   0  0  0  0  0  0  0  0  0  0  0  0
   -2.6402   -2.3048    0.5225 C   0  0  0  0  0  0  0  0  0  0  0  0
   -4.0467   -2.3671    1.0816 C   0  0  0  0  0  0  0  0  0  0  0  0
    5.5411   -0.5278    0.6505 H   0  0  0  0  0  0  0  0  0  0  0  0
    5.7980   -1.8712   -0.4736 H   0  0  0  0  0  0  0  0  0  0  0  0
    6.9085   -0.4888   -0.4708 H   0  0  0  0  0  0  0  0  0  0  0  0
    5.3714   -0.2939   -2.4009 H   0  0  0  0  0  0  0  0  0  0  0  0
    5.0215    0.9941   -1.2089 H   0  0  0  0  0  0  0  0  0  0  0  0
    3.0752   -2.3553    2.5669 H   0  0  0  0  0  0  0  0  0  0  0  0
    2.8534   -0.5793    2.6199 H   0  0  0  0  0  0  0  0  0  0  0  0
    0.7825   -1.8260    3.3324 H   0  0  0  0  0  0  0  0  0  0  0  0
    0.5059   -0.8126    1.9113 H   0  0  0  0  0  0  0  0  0  0  0  0
    0.7044   -2.5596    1.7190 H   0  0  0  0  0  0  0  0  0  0  0  0
   -0.5931    0.8821   -2.1348 H   0  0  0  0  0  0  0  0  0  0  0  0
    0.8955    1.6559   -1.4825 H   0  0  0  0  0  0  0  0  0  0  0  0
   -5.0553    1.5321   -0.3029 H   0  0  0  0  0  0  0  0  0  0  0  0
   -5.2105    1.9244    1.4364 H   0  0  0  0  0  0  0  0  0  0  0  0
   -3.3093    3.5693    1.1674 H   0  0  0  0  0  0  0  0  0  0  0  0
   -3.2796    3.2133   -0.5648 H   0  0  0  0  0  0  0  0  0  0  0  0
   -4.7054    3.9765    0.1536 H   0  0  0  0  0  0  0  0  0  0  0  0
   -2.6388   -2.5210   -0.5506 H   0  0  0  0  0  0  0  0  0  0  0  0
   -1.9720   -2.9949    1.0390 H   0  0  0  0  0  0  0  0  0  0  0  0
   -4.7011   -1.7002    0.5219 H   0  0  0  0  0  0  0  0  0  0  0  0
   -4.4210   -3.3826    0.9931 H   0  0  0  0  0  0  0  0  0  0  0  0
   -4.0508   -2.0696    2.1267 H   0  0  0  0  0  0  0  0  0  0  0  0
  1  2  1  0  0  0  0
  2  3  1  0  0  0  0
  3  4  2  0  0  0  0
  4  5  2  0  0  0  0
  4  6  2  0  0  0  0
  6  7  1  0  0  0  0
  7  8  1  0  0  0  0
  4  9  1  0  0  0  0
  9 10  1  0  0  0  0
 10 11  1  0  0  0  0
 11 12  1  0  0  0  0
 12 13  2  0  0  0  0
 12 14  2  0  0  0  0
 14 15  1  0  0  0  0
 15 16  1  0  0  0  0
 12 17  2  0  0  0  0
 17 18  1  0  0  0  0
 18 19  1  0  0  0  0
  1 20  1  0  0  0  0
  1 21  1  0  0  0  0
  1 22  1  0  0  0  0
  2 23  1  0  0  0  0
  2 24  1  0  0  0  0
  7 25  1  0  0  0  0
  7 26  1  0  0  0  0
  8 27  1  0  0  0  0
  8 28  1  0  0  0  0
  8 29  1  0  0  0  0
 10 30  1  0  0  0  0
 10 31  1  0  0  0  0
 15 32  1  0  0  0  0
 15 33  1  0  0  0  0
 16 34  1  0  0  0  0
 16 35  1  0  0  0  0
 16 36  1  0  0  0  0
 18 37  1  0  0  0  0
 18 38  1  0  0  0  0
 19 39  1  0  0  0  0
 19 40  1  0  0  0  0
 19 41  1  0  0  0  0
M  END
