41
 xtb: 6.7.1 (edcfbbe)
C            3.11196334162695       -1.72023273355104       -2.63344815098838
C            1.96447683886778       -1.13895445602229       -1.84705988783627
O            2.44948831097877        0.00264739130418       -1.04807472773206
P            2.59469825766737       -0.06897815510636        0.54619366282721
S            3.36091130649009        1.57650045067875        1.24252366440044
O            3.38649596628461       -1.44879311977037        0.77296074004974
C            4.29101316557997       -1.68594073695655        1.90946648318425
C            3.53639032679187       -2.03673873403319        3.16644899159395
S            0.69227817563680       -0.61091203833843        1.32530964477961
C           -0.20270323861576        0.97829743858264        1.11742944776694
S           -0.73853432866575        1.40190058678536       -0.59633284480976
P           -2.63018390760398        0.46969618019111       -0.68184068955461
S           -3.44082886914706        0.87857555973282       -2.40313043246962
O           -3.43875183699627        0.85337322373854        0.65106050516117
C           -4.28633454487635        2.05123627471746        0.74074234428374
C           -3.48109592348810        3.31220822827056        0.93586572248182
O           -2.40489176835640       -1.07163835045680       -0.28206382247520
C           -1.70381590917474       -1.97550215111697       -1.20879340168557
C           -2.69206500059275       -2.94752886620118       -1.80140814728535
H            3.56921815843112       -0.96161977775130       -3.27492409023972
H            3.87579559641563       -2.13646882768808       -1.97086209556814
H            2.73058189516593       -2.52482181057811       -3.27071540456501
H            1.50212291884614       -1.88006784528377       -1.18845808334866
H            1.19379977988274       -0.71897160778142       -2.49736415076036
H            4.91392338781603       -2.51500689931125        1.56826820004949
H            4.91603828207197       -0.79768132282166        2.03886695011758
H            4.26123784221016       -2.30877592372494        3.94079932987298
H            2.94895520417454       -1.19054898564618        3.53406018409331
H            2.87289202364612       -2.89067828535469        3.00146776016837
H            0.43904319108691        1.79799343455150        1.45567711390181
H           -1.07532583397734        0.92614539230464        1.77409624806383
H           -4.91174899429159        2.09763079889467       -0.15594485411773
H           -4.91946530369034        1.84338575906705        1.60539947222153
H           -4.17396304859658        4.13219020438060        1.15161194553967
H           -2.79258424923104        3.21237794172004        1.78048506121827
H           -2.91168099949926        3.57424218415069        0.04058547103289
H           -1.19453365501586       -1.38955147373340       -1.98067847487806
H           -0.95031325535632       -2.47849712115517       -0.59913523634532
H           -2.15316244849112       -3.65698063257741       -2.43780873573856
H           -3.20335797841318       -3.51005606536087       -1.01501209253220
H           -3.43627342816953       -2.42920665022582       -2.41215479738469
