 xtb: 6.7.1 (edcfbbe)
          04092505213D

 41 40  0     0  0            999 V2000
    3.1404   -1.1871   -2.4520 C   0  0  0  0  0  0  0  0  0  0  0  0
    3.2293    0.3157   -2.2956 C   0  0  0  0  0  0  0  0  0  0  0  0
    2.2347    0.8366   -1.3824 O   0  0  0  0  0  0  0  0  0  0  0  0
    2.1161    0.4846    0.1474 P   0  0  0  0  0  0  0  0  0  0  0  0
    1.1687    1.8562    1.1739 S   0  0  0  0  0  0  0  0  0  0  0  0
    3.6567    0.3364    0.5392 O   0  0  0  0  0  0  0  0  0  0  0  0
    4.1424    0.4382    1.8878 C   0  0  0  0  0  0  0  0  0  0  0  0
    3.6366   -0.6792    2.7774 C   0  0  0  0  0  0  0  0  0  0  0  0
    1.3306   -1.4995    0.3043 S   0  0  0  0  0  0  0  0  0  0  0  0
    0.0186   -1.2334    1.5349 C   0  0  0  0  0  0  0  0  0  0  0  0
   -1.6333   -1.7894    1.0076 S   0  0  0  0  0  0  0  0  0  0  0  0
   -2.1970   -0.3120   -0.3870 P   0  0  0  0  0  0  0  0  0  0  0  0
   -0.8435    0.5040   -1.5596 S   0  0  0  0  0  0  0  0  0  0  0  0
   -3.1063    0.7468    0.3840 O   0  0  0  0  0  0  0  0  0  0  0  0
   -2.6309    1.9444    1.0153 C   0  0  0  0  0  0  0  0  0  0  0  0
   -2.4897    1.7491    2.5119 C   0  0  0  0  0  0  0  0  0  0  0  0
   -3.2871   -1.1991   -1.1068 O   0  0  0  0  0  0  0  0  0  0  0  0
   -3.7785   -0.8960   -2.4277 C   0  0  0  0  0  0  0  0  0  0  0  0
   -4.6361    0.3524   -2.4420 C   0  0  0  0  0  0  0  0  0  0  0  0
    3.3931   -1.6808   -1.5147 H   0  0  0  0  0  0  0  0  0  0  0  0
    2.1314   -1.4753   -2.7383 H   0  0  0  0  0  0  0  0  0  0  0  0
    3.8364   -1.5070   -3.2212 H   0  0  0  0  0  0  0  0  0  0  0  0
    2.9975    0.8314   -3.2290 H   0  0  0  0  0  0  0  0  0  0  0  0
    4.2151    0.6164   -1.9346 H   0  0  0  0  0  0  0  0  0  0  0  0
    5.2268    0.4011    1.7731 H   0  0  0  0  0  0  0  0  0  0  0  0
    3.8442    1.4120    2.2886 H   0  0  0  0  0  0  0  0  0  0  0  0
    4.1508   -0.6336    3.7320 H   0  0  0  0  0  0  0  0  0  0  0  0
    2.5678   -0.5618    2.9482 H   0  0  0  0  0  0  0  0  0  0  0  0
    3.8188   -1.6456    2.3146 H   0  0  0  0  0  0  0  0  0  0  0  0
    0.0035   -0.1676    1.7831 H   0  0  0  0  0  0  0  0  0  0  0  0
    0.2437   -1.8423    2.4068 H   0  0  0  0  0  0  0  0  0  0  0  0
   -1.6790    2.2433    0.5624 H   0  0  0  0  0  0  0  0  0  0  0  0
   -3.3870    2.6991    0.7900 H   0  0  0  0  0  0  0  0  0  0  0  0
   -3.4247    1.3856    2.9283 H   0  0  0  0  0  0  0  0  0  0  0  0
   -1.7021    1.0330    2.7346 H   0  0  0  0  0  0  0  0  0  0  0  0
   -2.2302    2.6987    2.9685 H   0  0  0  0  0  0  0  0  0  0  0  0
   -2.9206   -0.7825   -3.0985 H   0  0  0  0  0  0  0  0  0  0  0  0
   -4.3504   -1.7837   -2.7018 H   0  0  0  0  0  0  0  0  0  0  0  0
   -5.0756    0.4760   -3.4269 H   0  0  0  0  0  0  0  0  0  0  0  0
   -5.4249    0.2733   -1.6987 H   0  0  0  0  0  0  0  0  0  0  0  0
   -4.0240    1.2242   -2.2148 H   0  0  0  0  0  0  0  0  0  0  0  0
  1  2  1  0  0  0  0
  2  3  1  0  0  0  0
  3  4  2  0  0  0  0
  4  5  2  0  0  0  0
  4  6  2  0  0  0  0
  6  7  1  0  0  0  0
  7  8  1  0  0  0  0
  4  9  1  0  0  0  0
  9 10  1  0  0  0  0
 10 11  1  0  0  0  0
 11 12  1  0  0  0  0
 12 13  2  0  0  0  0
 12 14  2  0  0  0  0
 14 15  1  0  0  0  0
 15 16  1  0  0  0  0
 12 17  2  0  0  0  0
 17 18  1  0  0  0  0
 18 19  1  0  0  0  0
  1 20  1  0  0  0  0
  1 21  1  0  0  0  0
  1 22  1  0  0  0  0
  2 23  1  0  0  0  0
  2 24  1  0  0  0  0
  7 25  1  0  0  0  0
  7 26  1  0  0  0  0
  8 27  1  0  0  0  0
  8 28  1  0  0  0  0
  8 29  1  0  0  0  0
 10 30  1  0  0  0  0
 10 31  1  0  0  0  0
 15 32  1  0  0  0  0
 15 33  1  0  0  0  0
 16 34  1  0  0  0  0
 16 35  1  0  0  0  0
 16 36  1  0  0  0  0
 18 37  1  0  0  0  0
 18 38  1  0  0  0  0
 19 39  1  0  0  0  0
 19 40  1  0  0  0  0
 19 41  1  0  0  0  0
M  END
