 xtb: 6.7.1 (edcfbbe)
          04092505213D

 41 40  0     0  0            999 V2000
    1.9563    2.0110   -1.0282 C   0  0  0  0  0  0  0  0  0  0  0  0
    2.2675    0.6803   -1.6807 C   0  0  0  0  0  0  0  0  0  0  0  0
    2.8736   -0.2621   -0.7812 O   0  0  0  0  0  0  0  0  0  0  0  0
    2.3232   -0.7090    0.6412 P   0  0  0  0  0  0  0  0  0  0  0  0
    2.4896    0.5577    2.1335 S   0  0  0  0  0  0  0  0  0  0  0  0
    3.1342   -2.0530    0.8542 O   0  0  0  0  0  0  0  0  0  0  0  0
    4.3801   -2.0921    1.5776 C   0  0  0  0  0  0  0  0  0  0  0  0
    5.4986   -1.4423    0.7906 C   0  0  0  0  0  0  0  0  0  0  0  0
    0.4043   -1.5291    0.2596 S   0  0  0  0  0  0  0  0  0  0  0  0
   -0.5157   -0.7644    1.6248 C   0  0  0  0  0  0  0  0  0  0  0  0
   -1.1703    0.8864    1.2400 S   0  0  0  0  0  0  0  0  0  0  0  0
   -2.2749    0.4421   -0.5177 P   0  0  0  0  0  0  0  0  0  0  0  0
   -1.3639    0.4437   -2.2579 S   0  0  0  0  0  0  0  0  0  0  0  0
   -3.5013    1.4521   -0.4509 O   0  0  0  0  0  0  0  0  0  0  0  0
   -3.4384    2.7698   -1.0193 C   0  0  0  0  0  0  0  0  0  0  0  0
   -2.5120    3.6741   -0.2321 C   0  0  0  0  0  0  0  0  0  0  0  0
   -2.9358   -0.9234   -0.0680 O   0  0  0  0  0  0  0  0  0  0  0  0
   -3.4271   -1.8798   -1.0307 C   0  0  0  0  0  0  0  0  0  0  0  0
   -4.6657   -1.3733   -1.7388 C   0  0  0  0  0  0  0  0  0  0  0  0
    2.8477    2.4337   -0.5712 H   0  0  0  0  0  0  0  0  0  0  0  0
    1.5753    2.6928   -1.7822 H   0  0  0  0  0  0  0  0  0  0  0  0
    1.1983    1.8865   -0.2547 H   0  0  0  0  0  0  0  0  0  0  0  0
    3.0083    0.7909   -2.4745 H   0  0  0  0  0  0  0  0  0  0  0  0
    1.3573    0.2341   -2.0934 H   0  0  0  0  0  0  0  0  0  0  0  0
    4.2405   -1.5871    2.5390 H   0  0  0  0  0  0  0  0  0  0  0  0
    4.5582   -3.1560    1.7375 H   0  0  0  0  0  0  0  0  0  0  0  0
    6.4339   -1.5542    1.3299 H   0  0  0  0  0  0  0  0  0  0  0  0
    5.5852   -1.9032   -0.1897 H   0  0  0  0  0  0  0  0  0  0  0  0
    5.2862   -0.3817    0.6612 H   0  0  0  0  0  0  0  0  0  0  0  0
    0.1473   -0.6190    2.4781 H   0  0  0  0  0  0  0  0  0  0  0  0
   -1.3393   -1.4302    1.8655 H   0  0  0  0  0  0  0  0  0  0  0  0
   -3.1027    2.6840   -2.0584 H   0  0  0  0  0  0  0  0  0  0  0  0
   -4.4702    3.1221   -0.9888 H   0  0  0  0  0  0  0  0  0  0  0  0
   -2.5456    4.6773   -0.6444 H   0  0  0  0  0  0  0  0  0  0  0  0
   -2.8072    3.7012    0.8136 H   0  0  0  0  0  0  0  0  0  0  0  0
   -1.4899    3.2996   -0.2928 H   0  0  0  0  0  0  0  0  0  0  0  0
   -2.6273   -2.0920   -1.7475 H   0  0  0  0  0  0  0  0  0  0  0  0
   -3.6344   -2.7693   -0.4346 H   0  0  0  0  0  0  0  0  0  0  0  0
   -5.0607   -2.1563   -2.3784 H   0  0  0  0  0  0  0  0  0  0  0  0
   -5.4200   -1.0808   -1.0131 H   0  0  0  0  0  0  0  0  0  0  0  0
   -4.4131   -0.5091   -2.3518 H   0  0  0  0  0  0  0  0  0  0  0  0
  1  2  1  0  0  0  0
  2  3  1  0  0  0  0
  3  4  2  0  0  0  0
  4  5  2  0  0  0  0
  4  6  2  0  0  0  0
  6  7  1  0  0  0  0
  7  8  1  0  0  0  0
  4  9  1  0  0  0  0
  9 10  1  0  0  0  0
 10 11  1  0  0  0  0
 11 12  1  0  0  0  0
 12 13  2  0  0  0  0
 12 14  2  0  0  0  0
 14 15  1  0  0  0  0
 15 16  1  0  0  0  0
 12 17  2  0  0  0  0
 17 18  1  0  0  0  0
 18 19  1  0  0  0  0
  1 20  1  0  0  0  0
  1 21  1  0  0  0  0
  1 22  1  0  0  0  0
  2 23  1  0  0  0  0
  2 24  1  0  0  0  0
  7 25  1  0  0  0  0
  7 26  1  0  0  0  0
  8 27  1  0  0  0  0
  8 28  1  0  0  0  0
  8 29  1  0  0  0  0
 10 30  1  0  0  0  0
 10 31  1  0  0  0  0
 15 32  1  0  0  0  0
 15 33  1  0  0  0  0
 16 34  1  0  0  0  0
 16 35  1  0  0  0  0
 16 36  1  0  0  0  0
 18 37  1  0  0  0  0
 18 38  1  0  0  0  0
 19 39  1  0  0  0  0
 19 40  1  0  0  0  0
 19 41  1  0  0  0  0
M  END
