 xtb: 6.7.1 (edcfbbe)
          04092507313D

 38 37  0     0  0            999 V2000
    4.9908   -0.1112   -0.4936 C   0  0  0  0  0  0  0  0  0  0  0  0
    4.4903   -1.3568   -1.2070 C   0  0  0  0  0  0  0  0  0  0  0  0
    3.0635   -1.2856   -1.3921 O   0  0  0  0  0  0  0  0  0  0  0  0
    2.2804   -1.9476   -0.5562 C   0  0  0  0  0  0  0  0  0  0  0  0
    2.6720   -2.6949    0.3103 O   0  0  0  0  0  0  0  0  0  0  0  0
    0.8123   -1.7274   -0.8784 C   0  0  0  0  0  0  0  0  0  0  0  0
    0.5186   -0.2448   -1.0756 C   0  0  0  0  0  0  0  0  0  0  0  0
    1.1008    0.1327   -1.9237 H   0  0  0  0  0  0  0  0  0  0  0  0
    0.9377    0.5618    0.1394 C   0  0  0  0  0  0  0  0  0  0  0  0
    1.8860    0.2503    0.8215 O   0  0  0  0  0  0  0  0  0  0  0  0
    0.2040    1.6446    0.3077 O   0  0  0  0  0  0  0  0  0  0  0  0
    0.5522    2.5387    1.3839 C   0  0  0  0  0  0  0  0  0  0  0  0
    1.5959    3.5442    0.9296 C   0  0  0  0  0  0  0  0  0  0  0  0
   -1.2120    0.0622   -1.5465 S   0  0  0  0  0  0  0  0  0  0  0  0
   -2.1668    0.1308    0.3510 P   0  0  0  0  0  0  0  0  0  0  0  0
   -1.2897   -0.7562    1.8665 S   0  0  0  0  0  0  0  0  0  0  0  0
   -2.5503    1.6304    0.6620 O   0  0  0  0  0  0  0  0  0  0  0  0
   -3.2615    2.4511   -0.2890 C   0  0  0  0  0  0  0  0  0  0  0  0
   -3.6116   -0.4598   -0.0060 O   0  0  0  0  0  0  0  0  0  0  0  0
   -3.7973   -1.8440   -0.3206 C   0  0  0  0  0  0  0  0  0  0  0  0
    4.7970    0.7718   -1.0962 H   0  0  0  0  0  0  0  0  0  0  0  0
    4.4761   -0.0052    0.4594 H   0  0  0  0  0  0  0  0  0  0  0  0
    6.0574   -0.1992   -0.3163 H   0  0  0  0  0  0  0  0  0  0  0  0
    4.7196   -2.2561   -0.6289 H   0  0  0  0  0  0  0  0  0  0  0  0
    4.9043   -1.4350   -2.2134 H   0  0  0  0  0  0  0  0  0  0  0  0
    0.2281   -2.1379   -0.0523 H   0  0  0  0  0  0  0  0  0  0  0  0
    0.5761   -2.2694   -1.7953 H   0  0  0  0  0  0  0  0  0  0  0  0
   -0.3887    3.0204    1.6515 H   0  0  0  0  0  0  0  0  0  0  0  0
    0.9158    1.9384    2.2232 H   0  0  0  0  0  0  0  0  0  0  0  0
    1.2409    4.0844    0.0564 H   0  0  0  0  0  0  0  0  0  0  0  0
    1.7846    4.2463    1.7347 H   0  0  0  0  0  0  0  0  0  0  0  0
    2.5241    3.0338    0.6827 H   0  0  0  0  0  0  0  0  0  0  0  0
   -3.3400    3.4275    0.1816 H   0  0  0  0  0  0  0  0  0  0  0  0
   -4.2476    2.0314   -0.4758 H   0  0  0  0  0  0  0  0  0  0  0  0
   -2.6970    2.5127   -1.2192 H   0  0  0  0  0  0  0  0  0  0  0  0
   -3.3038   -2.4692    0.4251 H   0  0  0  0  0  0  0  0  0  0  0  0
   -3.3959   -2.0555   -1.3115 H   0  0  0  0  0  0  0  0  0  0  0  0
   -4.8718   -2.0074   -0.2994 H   0  0  0  0  0  0  0  0  0  0  0  0
  1  2  1  0  0  0  0
  2  3  1  0  0  0  0
  3  4  1  0  0  0  0
  4  5  2  0  0  0  0
  4  6  1  0  0  0  0
  6  7  1  0  0  0  0
  7  8  1  0  0  0  0
  7  9  1  0  0  0  0
  9 10  2  0  0  0  0
  9 11  1  0  0  0  0
 11 12  1  0  0  0  0
 12 13  1  0  0  0  0
  7 14  1  0  0  0  0
 14 15  1  0  0  0  0
 15 16  2  0  0  0  0
 15 17  2  0  0  0  0
 17 18  1  0  0  0  0
 15 19  1  0  0  0  0
 19 20  1  0  0  0  0
  1 21  1  0  0  0  0
  1 22  1  0  0  0  0
  1 23  1  0  0  0  0
  2 24  1  0  0  0  0
  2 25  1  0  0  0  0
  6 26  1  0  0  0  0
  6 27  1  0  0  0  0
 12 28  1  0  0  0  0
 12 29  1  0  0  0  0
 13 30  1  0  0  0  0
 13 31  1  0  0  0  0
 13 32  1  0  0  0  0
 18 33  1  0  0  0  0
 18 34  1  0  0  0  0
 18 35  1  0  0  0  0
 20 36  1  0  0  0  0
 20 37  1  0  0  0  0
 20 38  1  0  0  0  0
M  END
