 xtb: 6.7.1 (edcfbbe)
          04092505213D

 41 40  0     0  0            999 V2000
    1.3505   -1.8216   -2.4579 C   0  0  0  0  0  0  0  0  0  0  0  0
    1.9992   -0.4584   -2.5796 C   0  0  0  0  0  0  0  0  0  0  0  0
    1.8050    0.3670   -1.4053 O   0  0  0  0  0  0  0  0  0  0  0  0
    2.2399    0.0064    0.0661 P   0  0  0  0  0  0  0  0  0  0  0  0
    2.4258    1.6248    1.1544 S   0  0  0  0  0  0  0  0  0  0  0  0
    3.5628   -0.8310   -0.2193 O   0  0  0  0  0  0  0  0  0  0  0  0
    4.2440   -1.6740    0.7273 C   0  0  0  0  0  0  0  0  0  0  0  0
    4.7360   -0.9185    1.9441 C   0  0  0  0  0  0  0  0  0  0  0  0
    0.9208   -1.4696    0.8684 S   0  0  0  0  0  0  0  0  0  0  0  0
    0.0221   -0.4854    2.1003 C   0  0  0  0  0  0  0  0  0  0  0  0
   -1.7707   -0.6200    1.9111 S   0  0  0  0  0  0  0  0  0  0  0  0
   -1.9838    0.2861    0.0113 P   0  0  0  0  0  0  0  0  0  0  0  0
   -0.8440    1.8653   -0.2843 S   0  0  0  0  0  0  0  0  0  0  0  0
   -3.5428    0.5599   -0.0859 O   0  0  0  0  0  0  0  0  0  0  0  0
   -4.1513    1.6855    0.5788 C   0  0  0  0  0  0  0  0  0  0  0  0
   -5.4610    1.9889   -0.1205 C   0  0  0  0  0  0  0  0  0  0  0  0
   -1.7951   -0.9327   -0.9808 O   0  0  0  0  0  0  0  0  0  0  0  0
   -2.5828   -1.1249   -2.1812 C   0  0  0  0  0  0  0  0  0  0  0  0
   -2.3239   -0.0354   -3.2004 C   0  0  0  0  0  0  0  0  0  0  0  0
    0.3073   -1.7189   -2.1701 H   0  0  0  0  0  0  0  0  0  0  0  0
    1.4128   -2.3300   -3.4150 H   0  0  0  0  0  0  0  0  0  0  0  0
    1.8585   -2.4195   -1.7034 H   0  0  0  0  0  0  0  0  0  0  0  0
    1.5439    0.1374   -3.3733 H   0  0  0  0  0  0  0  0  0  0  0  0
    3.0729   -0.5478   -2.7551 H   0  0  0  0  0  0  0  0  0  0  0  0
    3.5653   -2.4799    1.0204 H   0  0  0  0  0  0  0  0  0  0  0  0
    5.0764   -2.0809    0.1500 H   0  0  0  0  0  0  0  0  0  0  0  0
    5.3180   -1.5870    2.5702 H   0  0  0  0  0  0  0  0  0  0  0  0
    5.3538   -0.0760    1.6429 H   0  0  0  0  0  0  0  0  0  0  0  0
    3.8943   -0.5340    2.5173 H   0  0  0  0  0  0  0  0  0  0  0  0
    0.3389    0.5582    2.0064 H   0  0  0  0  0  0  0  0  0  0  0  0
    0.2461   -0.8748    3.0904 H   0  0  0  0  0  0  0  0  0  0  0  0
   -4.3100    1.4135    1.6252 H   0  0  0  0  0  0  0  0  0  0  0  0
   -3.4610    2.5345    0.5291 H   0  0  0  0  0  0  0  0  0  0  0  0
   -6.1068    1.1162   -0.0925 H   0  0  0  0  0  0  0  0  0  0  0  0
   -5.9500    2.8140    0.3866 H   0  0  0  0  0  0  0  0  0  0  0  0
   -5.2805    2.2634   -1.1560 H   0  0  0  0  0  0  0  0  0  0  0  0
   -2.2633   -2.1040   -2.5418 H   0  0  0  0  0  0  0  0  0  0  0  0
   -3.6363   -1.1567   -1.9000 H   0  0  0  0  0  0  0  0  0  0  0  0
   -2.9076   -0.2287   -4.0949 H   0  0  0  0  0  0  0  0  0  0  0  0
   -2.6084    0.9324   -2.7884 H   0  0  0  0  0  0  0  0  0  0  0  0
   -1.2685    0.0029   -3.4596 H   0  0  0  0  0  0  0  0  0  0  0  0
  1  2  1  0  0  0  0
  2  3  1  0  0  0  0
  3  4  2  0  0  0  0
  4  5  2  0  0  0  0
  4  6  2  0  0  0  0
  6  7  1  0  0  0  0
  7  8  1  0  0  0  0
  4  9  1  0  0  0  0
  9 10  1  0  0  0  0
 10 11  1  0  0  0  0
 11 12  1  0  0  0  0
 12 13  2  0  0  0  0
 12 14  2  0  0  0  0
 14 15  1  0  0  0  0
 15 16  1  0  0  0  0
 12 17  2  0  0  0  0
 17 18  1  0  0  0  0
 18 19  1  0  0  0  0
  1 20  1  0  0  0  0
  1 21  1  0  0  0  0
  1 22  1  0  0  0  0
  2 23  1  0  0  0  0
  2 24  1  0  0  0  0
  7 25  1  0  0  0  0
  7 26  1  0  0  0  0
  8 27  1  0  0  0  0
  8 28  1  0  0  0  0
  8 29  1  0  0  0  0
 10 30  1  0  0  0  0
 10 31  1  0  0  0  0
 15 32  1  0  0  0  0
 15 33  1  0  0  0  0
 16 34  1  0  0  0  0
 16 35  1  0  0  0  0
 16 36  1  0  0  0  0
 18 37  1  0  0  0  0
 18 38  1  0  0  0  0
 19 39  1  0  0  0  0
 19 40  1  0  0  0  0
 19 41  1  0  0  0  0
M  END
