 xtb: 6.7.1 (edcfbbe)
          04092518573D

 38 37  0     0  0            999 V2000
    5.1729   -3.1005   -0.4984 C   0  0  0  0  0  0  0  0  0  0  0  0
    4.8155   -2.0908   -1.5770 C   0  0  0  0  0  0  0  0  0  0  0  0
    3.3974   -2.1027   -1.8415 O   0  0  0  0  0  0  0  0  0  0  0  0
    2.6115   -1.3554   -1.0988 C   0  0  0  0  0  0  0  0  0  0  0  0
    2.9928   -0.6081   -0.2206 O   0  0  0  0  0  0  0  0  0  0  0  0
    1.1544   -1.5437   -1.4595 C   0  0  0  0  0  0  0  0  0  0  0  0
    0.3309   -0.4113   -0.8624 C   0  0  0  0  0  0  0  0  0  0  0  0
    0.4900    0.5396   -1.3767 H   0  0  0  0  0  0  0  0  0  0  0  0
    0.6515   -0.2414    0.6131 C   0  0  0  0  0  0  0  0  0  0  0  0
    0.5915   -1.1521    1.4122 O   0  0  0  0  0  0  0  0  0  0  0  0
    0.9085    1.0121    0.9040 O   0  0  0  0  0  0  0  0  0  0  0  0
    1.2617    1.3494    2.2594 C   0  0  0  0  0  0  0  0  0  0  0  0
    0.7273    2.7329    2.5752 C   0  0  0  0  0  0  0  0  0  0  0  0
   -1.4411   -0.8399   -0.9688 S   0  0  0  0  0  0  0  0  0  0  0  0
   -2.1792    0.8805    0.0383 P   0  0  0  0  0  0  0  0  0  0  0  0
   -1.5082    2.6063   -0.5798 S   0  0  0  0  0  0  0  0  0  0  0  0
   -3.7568    0.6770   -0.0953 O   0  0  0  0  0  0  0  0  0  0  0  0
   -4.4174    0.8533   -1.3560 C   0  0  0  0  0  0  0  0  0  0  0  0
   -1.9770    0.6587    1.5928 O   0  0  0  0  0  0  0  0  0  0  0  0
   -2.4635   -0.5031    2.2979 C   0  0  0  0  0  0  0  0  0  0  0  0
    4.6990   -2.8265    0.4420 H   0  0  0  0  0  0  0  0  0  0  0  0
    4.8368   -4.0922   -0.7877 H   0  0  0  0  0  0  0  0  0  0  0  0
    6.2488   -3.1123   -0.3599 H   0  0  0  0  0  0  0  0  0  0  0  0
    5.2708   -2.3499   -2.5326 H   0  0  0  0  0  0  0  0  0  0  0  0
    5.1054   -1.0805   -1.2751 H   0  0  0  0  0  0  0  0  0  0  0  0
    0.8335   -2.4948   -1.0246 H   0  0  0  0  0  0  0  0  0  0  0  0
    1.0336   -1.6021   -2.5400 H   0  0  0  0  0  0  0  0  0  0  0  0
    0.8445    0.5871    2.9243 H   0  0  0  0  0  0  0  0  0  0  0  0
    2.3538    1.3162    2.3126 H   0  0  0  0  0  0  0  0  0  0  0  0
    1.1271    3.4550    1.8693 H   0  0  0  0  0  0  0  0  0  0  0  0
   -0.3574    2.7416    2.4974 H   0  0  0  0  0  0  0  0  0  0  0  0
    1.0190    3.0086    3.5829 H   0  0  0  0  0  0  0  0  0  0  0  0
   -4.0835    1.7791   -1.8264 H   0  0  0  0  0  0  0  0  0  0  0  0
   -5.4782    0.9042   -1.1245 H   0  0  0  0  0  0  0  0  0  0  0  0
   -4.2028    0.0058   -2.0060 H   0  0  0  0  0  0  0  0  0  0  0  0
   -3.3855   -0.8642    1.8483 H   0  0  0  0  0  0  0  0  0  0  0  0
   -2.6380   -0.1709    3.3180 H   0  0  0  0  0  0  0  0  0  0  0  0
   -1.6952   -1.2771    2.2745 H   0  0  0  0  0  0  0  0  0  0  0  0
  1  2  1  0  0  0  0
  2  3  1  0  0  0  0
  3  4  4  0  0  0  0
  4  5  2  0  0  0  0
  4  6  1  0  0  0  0
  6  7  1  0  0  0  0
  7  8  1  0  0  0  0
  7  9  1  0  0  0  0
  9 10  2  0  0  0  0
  9 11  1  0  0  0  0
 11 12  1  0  0  0  0
 12 13  1  0  0  0  0
  7 14  1  0  0  0  0
 14 15  1  0  0  0  0
 15 16  2  0  0  0  0
 15 17  2  0  0  0  0
 17 18  1  0  0  0  0
 15 19  2  0  0  0  0
 19 20  1  0  0  0  0
  1 21  1  0  0  0  0
  1 22  1  0  0  0  0
  1 23  1  0  0  0  0
  2 24  1  0  0  0  0
  2 25  1  0  0  0  0
  6 26  1  0  0  0  0
  6 27  1  0  0  0  0
 12 28  1  0  0  0  0
 12 29  1  0  0  0  0
 13 30  1  0  0  0  0
 13 31  1  0  0  0  0
 13 32  1  0  0  0  0
 18 33  1  0  0  0  0
 18 34  1  0  0  0  0
 18 35  1  0  0  0  0
 20 36  1  0  0  0  0
 20 37  1  0  0  0  0
 20 38  1  0  0  0  0
M  END
