 xtb: 6.7.1 (edcfbbe)
          04092505213D

 41 40  0     0  0            999 V2000
    3.6125   -1.8617   -2.3519 C   0  0  0  0  0  0  0  0  0  0  0  0
    4.0169   -0.4138   -2.1606 C   0  0  0  0  0  0  0  0  0  0  0  0
    3.5971    0.1148   -0.8923 O   0  0  0  0  0  0  0  0  0  0  0  0
    2.0674    0.3258   -0.4788 P   0  0  0  0  0  0  0  0  0  0  0  0
    0.9381    0.9950   -1.9240 S   0  0  0  0  0  0  0  0  0  0  0  0
    2.2369    1.3343    0.7124 O   0  0  0  0  0  0  0  0  0  0  0  0
    3.0152    1.0370    1.9005 C   0  0  0  0  0  0  0  0  0  0  0  0
    2.5565    1.9766    2.9949 C   0  0  0  0  0  0  0  0  0  0  0  0
    1.5087   -1.5414    0.4001 S   0  0  0  0  0  0  0  0  0  0  0  0
    0.1366   -2.0170   -0.6941 C   0  0  0  0  0  0  0  0  0  0  0  0
   -1.4611   -2.1944    0.1531 S   0  0  0  0  0  0  0  0  0  0  0  0
   -2.0007   -0.1820    0.3969 P   0  0  0  0  0  0  0  0  0  0  0  0
   -0.8213    1.0202    1.4128 S   0  0  0  0  0  0  0  0  0  0  0  0
   -3.4591   -0.2825    1.0203 O   0  0  0  0  0  0  0  0  0  0  0  0
   -3.7057   -0.3820    2.4372 C   0  0  0  0  0  0  0  0  0  0  0  0
   -5.0064    0.3326    2.7459 C   0  0  0  0  0  0  0  0  0  0  0  0
   -2.3068    0.2100   -1.1016 O   0  0  0  0  0  0  0  0  0  0  0  0
   -2.6231    1.5671   -1.4848 C   0  0  0  0  0  0  0  0  0  0  0  0
   -2.5504    1.6481   -2.9943 C   0  0  0  0  0  0  0  0  0  0  0  0
    2.5322   -1.9344   -2.4665 H   0  0  0  0  0  0  0  0  0  0  0  0
    4.0860   -2.2474   -3.2491 H   0  0  0  0  0  0  0  0  0  0  0  0
    3.9206   -2.4569   -1.4962 H   0  0  0  0  0  0  0  0  0  0  0  0
    3.5928    0.2127   -2.9517 H   0  0  0  0  0  0  0  0  0  0  0  0
    5.1017   -0.2992   -2.1396 H   0  0  0  0  0  0  0  0  0  0  0  0
    2.8444   -0.0080    2.1761 H   0  0  0  0  0  0  0  0  0  0  0  0
    4.0684    1.1807    1.6510 H   0  0  0  0  0  0  0  0  0  0  0  0
    3.1031    1.7592    3.9065 H   0  0  0  0  0  0  0  0  0  0  0  0
    2.7320    3.0072    2.7006 H   0  0  0  0  0  0  0  0  0  0  0  0
    1.4911    1.8435    3.1685 H   0  0  0  0  0  0  0  0  0  0  0  0
    0.3571   -3.0044   -1.0910 H   0  0  0  0  0  0  0  0  0  0  0  0
    0.0409   -1.2718   -1.4887 H   0  0  0  0  0  0  0  0  0  0  0  0
   -3.7639   -1.4437    2.6872 H   0  0  0  0  0  0  0  0  0  0  0  0
   -2.8647    0.0723    2.9721 H   0  0  0  0  0  0  0  0  0  0  0  0
   -5.8128   -0.0963    2.1582 H   0  0  0  0  0  0  0  0  0  0  0  0
   -5.2305    0.2211    3.8016 H   0  0  0  0  0  0  0  0  0  0  0  0
   -4.9194    1.3896    2.5086 H   0  0  0  0  0  0  0  0  0  0  0  0
   -3.6246    1.7974   -1.1137 H   0  0  0  0  0  0  0  0  0  0  0  0
   -1.8989    2.2399   -1.0125 H   0  0  0  0  0  0  0  0  0  0  0  0
   -2.8370    2.6455   -3.3109 H   0  0  0  0  0  0  0  0  0  0  0  0
   -1.5343    1.4456   -3.3249 H   0  0  0  0  0  0  0  0  0  0  0  0
   -3.2213    0.9176   -3.4362 H   0  0  0  0  0  0  0  0  0  0  0  0
  1  2  1  0  0  0  0
  2  3  1  0  0  0  0
  3  4  2  0  0  0  0
  4  5  2  0  0  0  0
  4  6  2  0  0  0  0
  6  7  1  0  0  0  0
  7  8  1  0  0  0  0
  4  9  1  0  0  0  0
  9 10  1  0  0  0  0
 10 11  1  0  0  0  0
 11 12  1  0  0  0  0
 12 13  2  0  0  0  0
 12 14  2  0  0  0  0
 14 15  1  0  0  0  0
 15 16  1  0  0  0  0
 12 17  2  0  0  0  0
 17 18  1  0  0  0  0
 18 19  1  0  0  0  0
  1 20  1  0  0  0  0
  1 21  1  0  0  0  0
  1 22  1  0  0  0  0
  2 23  1  0  0  0  0
  2 24  1  0  0  0  0
  7 25  1  0  0  0  0
  7 26  1  0  0  0  0
  8 27  1  0  0  0  0
  8 28  1  0  0  0  0
  8 29  1  0  0  0  0
 10 30  1  0  0  0  0
 10 31  1  0  0  0  0
 15 32  1  0  0  0  0
 15 33  1  0  0  0  0
 16 34  1  0  0  0  0
 16 35  1  0  0  0  0
 16 36  1  0  0  0  0
 18 37  1  0  0  0  0
 18 38  1  0  0  0  0
 19 39  1  0  0  0  0
 19 40  1  0  0  0  0
 19 41  1  0  0  0  0
M  END
