 xtb: 6.7.1 (edcfbbe)
          04092505203D

 41 40  0     0  0            999 V2000
    4.2523   -1.0695   -1.6460 C   0  0  0  0  0  0  0  0  0  0  0  0
    4.4799    0.2925   -1.0223 C   0  0  0  0  0  0  0  0  0  0  0  0
    3.6611    0.5078    0.1382 O   0  0  0  0  0  0  0  0  0  0  0  0
    2.0716    0.5895    0.0598 P   0  0  0  0  0  0  0  0  0  0  0  0
    1.3842    1.5128   -1.5273 S   0  0  0  0  0  0  0  0  0  0  0  0
    1.7313    1.3301    1.4126 O   0  0  0  0  0  0  0  0  0  0  0  0
    2.5452    1.2721    2.6133 C   0  0  0  0  0  0  0  0  0  0  0  0
    2.6882   -0.1330    3.1600 C   0  0  0  0  0  0  0  0  0  0  0  0
    1.4106   -1.4220    0.3228 S   0  0  0  0  0  0  0  0  0  0  0  0
    0.2382   -1.6193   -1.0501 C   0  0  0  0  0  0  0  0  0  0  0  0
   -1.4353   -1.9988   -0.4777 S   0  0  0  0  0  0  0  0  0  0  0  0
   -2.1396    0.0050   -0.3365 P   0  0  0  0  0  0  0  0  0  0  0  0
   -2.0826    1.0620   -1.9822 S   0  0  0  0  0  0  0  0  0  0  0  0
   -1.2710    0.6883    0.7962 O   0  0  0  0  0  0  0  0  0  0  0  0
   -1.3268    0.2588    2.1816 C   0  0  0  0  0  0  0  0  0  0  0  0
   -2.2535    1.1516    2.9795 C   0  0  0  0  0  0  0  0  0  0  0  0
   -3.5474   -0.1735    0.3742 O   0  0  0  0  0  0  0  0  0  0  0  0
   -4.5544   -1.1195   -0.0364 C   0  0  0  0  0  0  0  0  0  0  0  0
   -4.9598   -0.9554   -1.4855 C   0  0  0  0  0  0  0  0  0  0  0  0
    4.3440   -1.8524   -0.8975 H   0  0  0  0  0  0  0  0  0  0  0  0
    3.2568   -1.1113   -2.0867 H   0  0  0  0  0  0  0  0  0  0  0  0
    4.9862   -1.2309   -2.4291 H   0  0  0  0  0  0  0  0  0  0  0  0
    4.2671    1.0848   -1.7466 H   0  0  0  0  0  0  0  0  0  0  0  0
    5.4977    0.3969   -0.6436 H   0  0  0  0  0  0  0  0  0  0  0  0
    3.5227    1.6979    2.3804 H   0  0  0  0  0  0  0  0  0  0  0  0
    2.0125    1.9259    3.3059 H   0  0  0  0  0  0  0  0  0  0  0  0
    3.2784   -0.0959    4.0705 H   0  0  0  0  0  0  0  0  0  0  0  0
    1.7174   -0.5679    3.3833 H   0  0  0  0  0  0  0  0  0  0  0  0
    3.1943   -0.7682    2.4354 H   0  0  0  0  0  0  0  0  0  0  0  0
    0.5593   -2.4680   -1.6479 H   0  0  0  0  0  0  0  0  0  0  0  0
    0.2210   -0.6968   -1.6410 H   0  0  0  0  0  0  0  0  0  0  0  0
   -1.6454   -0.7867    2.2182 H   0  0  0  0  0  0  0  0  0  0  0  0
   -0.2982    0.3450    2.5336 H   0  0  0  0  0  0  0  0  0  0  0  0
   -3.2706    1.0701    2.6056 H   0  0  0  0  0  0  0  0  0  0  0  0
   -2.2261    0.8499    4.0219 H   0  0  0  0  0  0  0  0  0  0  0  0
   -1.9331    2.1866    2.8936 H   0  0  0  0  0  0  0  0  0  0  0  0
   -4.1688   -2.1268    0.1444 H   0  0  0  0  0  0  0  0  0  0  0  0
   -5.3883   -0.9129    0.6368 H   0  0  0  0  0  0  0  0  0  0  0  0
   -4.1160   -1.1733   -2.1386 H   0  0  0  0  0  0  0  0  0  0  0  0
   -5.7709   -1.6396   -1.7126 H   0  0  0  0  0  0  0  0  0  0  0  0
   -5.2827    0.0652   -1.6766 H   0  0  0  0  0  0  0  0  0  0  0  0
  1  2  1  0  0  0  0
  2  3  1  0  0  0  0
  3  4  2  0  0  0  0
  4  5  2  0  0  0  0
  4  6  2  0  0  0  0
  6  7  1  0  0  0  0
  7  8  1  0  0  0  0
  4  9  1  0  0  0  0
  9 10  1  0  0  0  0
 10 11  1  0  0  0  0
 11 12  1  0  0  0  0
 12 13  2  0  0  0  0
 12 14  2  0  0  0  0
 14 15  1  0  0  0  0
 15 16  1  0  0  0  0
 12 17  2  0  0  0  0
 17 18  1  0  0  0  0
 18 19  1  0  0  0  0
  1 20  1  0  0  0  0
  1 21  1  0  0  0  0
  1 22  1  0  0  0  0
  2 23  1  0  0  0  0
  2 24  1  0  0  0  0
  7 25  1  0  0  0  0
  7 26  1  0  0  0  0
  8 27  1  0  0  0  0
  8 28  1  0  0  0  0
  8 29  1  0  0  0  0
 10 30  1  0  0  0  0
 10 31  1  0  0  0  0
 15 32  1  0  0  0  0
 15 33  1  0  0  0  0
 16 34  1  0  0  0  0
 16 35  1  0  0  0  0
 16 36  1  0  0  0  0
 18 37  1  0  0  0  0
 18 38  1  0  0  0  0
 19 39  1  0  0  0  0
 19 40  1  0  0  0  0
 19 41  1  0  0  0  0
M  END
