 xtb: 6.7.1 (edcfbbe)
          04092505213D

 41 40  0     0  0            999 V2000
    4.9786   -1.2396   -0.9462 C   0  0  0  0  0  0  0  0  0  0  0  0
    4.8703    0.2518   -0.7153 C   0  0  0  0  0  0  0  0  0  0  0  0
    3.5467    0.7670   -1.0148 O   0  0  0  0  0  0  0  0  0  0  0  0
    2.2216    0.3533   -0.2797 P   0  0  0  0  0  0  0  0  0  0  0  0
    0.8181    1.7059   -0.5139 S   0  0  0  0  0  0  0  0  0  0  0  0
    2.7224    0.1423    1.2156 O   0  0  0  0  0  0  0  0  0  0  0  0
    1.8084   -0.1501    2.2904 C   0  0  0  0  0  0  0  0  0  0  0  0
    2.5596    0.0147    3.5954 C   0  0  0  0  0  0  0  0  0  0  0  0
    1.7171   -1.6021   -0.9742 S   0  0  0  0  0  0  0  0  0  0  0  0
   -0.0558   -1.4220   -1.2301 C   0  0  0  0  0  0  0  0  0  0  0  0
   -0.9776   -1.2538    0.3358 S   0  0  0  0  0  0  0  0  0  0  0  0
   -2.3970    0.2356   -0.2313 P   0  0  0  0  0  0  0  0  0  0  0  0
   -2.4344    0.7590   -2.1135 S   0  0  0  0  0  0  0  0  0  0  0  0
   -2.1717    1.4408    0.7546 O   0  0  0  0  0  0  0  0  0  0  0  0
   -2.1603    1.2827    2.1970 C   0  0  0  0  0  0  0  0  0  0  0  0
   -1.4564    2.4878    2.7849 C   0  0  0  0  0  0  0  0  0  0  0  0
   -3.7746   -0.3444    0.3302 O   0  0  0  0  0  0  0  0  0  0  0  0
   -4.6337   -1.2110   -0.4306 C   0  0  0  0  0  0  0  0  0  0  0  0
   -3.9733   -2.5303   -0.7753 C   0  0  0  0  0  0  0  0  0  0  0  0
    6.0078   -1.5475   -0.7893 H   0  0  0  0  0  0  0  0  0  0  0  0
    4.3375   -1.7792   -0.2514 H   0  0  0  0  0  0  0  0  0  0  0  0
    4.6802   -1.4909   -1.9607 H   0  0  0  0  0  0  0  0  0  0  0  0
    5.5113    0.8132   -1.3967 H   0  0  0  0  0  0  0  0  0  0  0  0
    5.1079    0.5090    0.3180 H   0  0  0  0  0  0  0  0  0  0  0  0
    0.9625    0.5414    2.2236 H   0  0  0  0  0  0  0  0  0  0  0  0
    1.4401   -1.1727    2.1638 H   0  0  0  0  0  0  0  0  0  0  0  0
    2.9213    1.0345    3.6922 H   0  0  0  0  0  0  0  0  0  0  0  0
    1.8911   -0.2087    4.4200 H   0  0  0  0  0  0  0  0  0  0  0  0
    3.4061   -0.6648    3.6250 H   0  0  0  0  0  0  0  0  0  0  0  0
   -0.3730   -2.3360   -1.7266 H   0  0  0  0  0  0  0  0  0  0  0  0
   -0.2655   -0.5438   -1.8456 H   0  0  0  0  0  0  0  0  0  0  0  0
   -3.1967    1.2134    2.5329 H   0  0  0  0  0  0  0  0  0  0  0  0
   -1.6392    0.3508    2.4398 H   0  0  0  0  0  0  0  0  0  0  0  0
   -2.0129    3.3922    2.5572 H   0  0  0  0  0  0  0  0  0  0  0  0
   -1.3774    2.3697    3.8605 H   0  0  0  0  0  0  0  0  0  0  0  0
   -0.4628    2.5843    2.3531 H   0  0  0  0  0  0  0  0  0  0  0  0
   -5.4986   -1.3503    0.2195 H   0  0  0  0  0  0  0  0  0  0  0  0
   -4.9320   -0.6829   -1.3414 H   0  0  0  0  0  0  0  0  0  0  0  0
   -3.5716   -3.0003    0.1188 H   0  0  0  0  0  0  0  0  0  0  0  0
   -4.7067   -3.1875   -1.2314 H   0  0  0  0  0  0  0  0  0  0  0  0
   -3.1646   -2.3618   -1.4856 H   0  0  0  0  0  0  0  0  0  0  0  0
  1  2  1  0  0  0  0
  2  3  1  0  0  0  0
  3  4  2  0  0  0  0
  4  5  2  0  0  0  0
  4  6  2  0  0  0  0
  6  7  1  0  0  0  0
  7  8  1  0  0  0  0
  4  9  1  0  0  0  0
  9 10  1  0  0  0  0
 10 11  1  0  0  0  0
 11 12  1  0  0  0  0
 12 13  2  0  0  0  0
 12 14  2  0  0  0  0
 14 15  1  0  0  0  0
 15 16  1  0  0  0  0
 12 17  2  0  0  0  0
 17 18  1  0  0  0  0
 18 19  1  0  0  0  0
  1 20  1  0  0  0  0
  1 21  1  0  0  0  0
  1 22  1  0  0  0  0
  2 23  1  0  0  0  0
  2 24  1  0  0  0  0
  7 25  1  0  0  0  0
  7 26  1  0  0  0  0
  8 27  1  0  0  0  0
  8 28  1  0  0  0  0
  8 29  1  0  0  0  0
 10 30  1  0  0  0  0
 10 31  1  0  0  0  0
 15 32  1  0  0  0  0
 15 33  1  0  0  0  0
 16 34  1  0  0  0  0
 16 35  1  0  0  0  0
 16 36  1  0  0  0  0
 18 37  1  0  0  0  0
 18 38  1  0  0  0  0
 19 39  1  0  0  0  0
 19 40  1  0  0  0  0
 19 41  1  0  0  0  0
M  END
