 xtb: 6.7.1 (edcfbbe)
          04032519463D

 13 13  0     0  0            999 V2000
   -1.8634    0.0063   -0.0002 C   0  0  0  0  0  0  0  0  0  0  0  0
   -1.1701   -1.1936   -0.0001 C   0  0  0  0  0  0  0  0  0  0  0  0
    0.2111   -1.2037   -0.0001 C   0  0  0  0  0  0  0  0  0  0  0  0
    0.9156   -0.0028    0.0000 C   0  0  0  0  0  0  0  0  0  0  0  0
    0.2206    1.2012    0.0003 C   0  0  0  0  0  0  0  0  0  0  0  0
   -1.1632    1.1998    0.0001 C   0  0  0  0  0  0  0  0  0  0  0  0
    2.2754   -0.0597   -0.0001 O   0  0  0  0  0  0  0  0  0  0  0  0
   -2.9422    0.0098   -0.0004 H   0  0  0  0  0  0  0  0  0  0  0  0
   -1.7079   -2.1294    0.0019 H   0  0  0  0  0  0  0  0  0  0  0  0
    0.7666   -2.1284    0.0009 H   0  0  0  0  0  0  0  0  0  0  0  0
    0.7604    2.1372   -0.0007 H   0  0  0  0  0  0  0  0  0  0  0  0
   -1.6948    2.1395   -0.0007 H   0  0  0  0  0  0  0  0  0  0  0  0
    2.6538    0.8326    0.0001 H   0  0  0  0  0  0  0  0  0  0  0  0
  1  2  4  0  0  0  0
  2  3  4  0  0  0  0
  3  4  4  0  0  0  0
  4  5  4  0  0  0  0
  1  6  4  0  0  0  0
  5  6  4  0  0  0  0
  4  7  1  0  0  0  0
  1  8  1  0  0  0  0
  2  9  1  0  0  0  0
  3 10  1  0  0  0  0
  5 11  1  0  0  0  0
  6 12  1  0  0  0  0
  7 13  1  0  0  0  0
M  END
