 xtb: 6.7.1 (edcfbbe)
          04092505213D

 41 40  0     0  0            999 V2000
    0.8178   -2.7493    1.5585 C   0  0  0  0  0  0  0  0  0  0  0  0
    1.8798   -1.7168    1.8781 C   0  0  0  0  0  0  0  0  0  0  0  0
    1.6164   -0.4746    1.1904 O   0  0  0  0  0  0  0  0  0  0  0  0
    2.3391   -0.0755   -0.1813 P   0  0  0  0  0  0  0  0  0  0  0  0
    2.9633   -1.5424   -1.3045 S   0  0  0  0  0  0  0  0  0  0  0  0
    3.5538    0.8581    0.2350 O   0  0  0  0  0  0  0  0  0  0  0  0
    3.3780    2.0366    1.0598 C   0  0  0  0  0  0  0  0  0  0  0  0
    4.7488    2.4788    1.5282 C   0  0  0  0  0  0  0  0  0  0  0  0
    0.9309    1.2867   -0.9747 S   0  0  0  0  0  0  0  0  0  0  0  0
    0.0723    0.1192   -2.0641 C   0  0  0  0  0  0  0  0  0  0  0  0
   -0.7964   -1.1957   -1.1729 S   0  0  0  0  0  0  0  0  0  0  0  0
   -2.1104    0.0616   -0.0964 P   0  0  0  0  0  0  0  0  0  0  0  0
   -2.7961    1.6486   -1.0283 S   0  0  0  0  0  0  0  0  0  0  0  0
   -1.2431    0.3191    1.2033 O   0  0  0  0  0  0  0  0  0  0  0  0
   -1.4138    1.4907    2.0232 C   0  0  0  0  0  0  0  0  0  0  0  0
   -2.7319    1.4645    2.7685 C   0  0  0  0  0  0  0  0  0  0  0  0
   -3.2197   -0.9264    0.4674 O   0  0  0  0  0  0  0  0  0  0  0  0
   -4.4286   -1.2248   -0.2517 C   0  0  0  0  0  0  0  0  0  0  0  0
   -4.1655   -2.0543   -1.4921 C   0  0  0  0  0  0  0  0  0  0  0  0
   -0.1712   -2.3362    1.7425 H   0  0  0  0  0  0  0  0  0  0  0  0
    0.8829   -3.0452    0.5135 H   0  0  0  0  0  0  0  0  0  0  0  0
    0.9682   -3.6222    2.1855 H   0  0  0  0  0  0  0  0  0  0  0  0
    2.8726   -2.0806    1.5964 H   0  0  0  0  0  0  0  0  0  0  0  0
    1.8701   -1.4522    2.9371 H   0  0  0  0  0  0  0  0  0  0  0  0
    2.8943    2.8044    0.4501 H   0  0  0  0  0  0  0  0  0  0  0  0
    2.7263    1.7823    1.8999 H   0  0  0  0  0  0  0  0  0  0  0  0
    5.3821    2.6883    0.6711 H   0  0  0  0  0  0  0  0  0  0  0  0
    4.6472    3.3765    2.1294 H   0  0  0  0  0  0  0  0  0  0  0  0
    5.2132    1.6966    2.1219 H   0  0  0  0  0  0  0  0  0  0  0  0
    0.7955   -0.3739   -2.7128 H   0  0  0  0  0  0  0  0  0  0  0  0
   -0.6409    0.7117   -2.6364 H   0  0  0  0  0  0  0  0  0  0  0  0
   -0.5609    1.4614    2.7027 H   0  0  0  0  0  0  0  0  0  0  0  0
   -1.3459    2.3761    1.3824 H   0  0  0  0  0  0  0  0  0  0  0  0
   -2.8231    0.5451    3.3408 H   0  0  0  0  0  0  0  0  0  0  0  0
   -2.7849    2.3169    3.4385 H   0  0  0  0  0  0  0  0  0  0  0  0
   -3.5564    1.5206    2.0586 H   0  0  0  0  0  0  0  0  0  0  0  0
   -5.0379   -1.7662    0.4732 H   0  0  0  0  0  0  0  0  0  0  0  0
   -4.9148   -0.2805   -0.5172 H   0  0  0  0  0  0  0  0  0  0  0  0
   -3.5824   -2.9366   -1.2402 H   0  0  0  0  0  0  0  0  0  0  0  0
   -5.1116   -2.3587   -1.9283 H   0  0  0  0  0  0  0  0  0  0  0  0
   -3.6121   -1.4673   -2.2238 H   0  0  0  0  0  0  0  0  0  0  0  0
  1  2  1  0  0  0  0
  2  3  1  0  0  0  0
  3  4  1  0  0  0  0
  4  5  2  0  0  0  0
  4  6  2  0  0  0  0
  6  7  1  0  0  0  0
  7  8  1  0  0  0  0
  4  9  1  0  0  0  0
  9 10  1  0  0  0  0
 10 11  1  0  0  0  0
 11 12  1  0  0  0  0
 12 13  2  0  0  0  0
 12 14  2  0  0  0  0
 14 15  1  0  0  0  0
 15 16  1  0  0  0  0
 12 17  2  0  0  0  0
 17 18  1  0  0  0  0
 18 19  1  0  0  0  0
  1 20  1  0  0  0  0
  1 21  1  0  0  0  0
  1 22  1  0  0  0  0
  2 23  1  0  0  0  0
  2 24  1  0  0  0  0
  7 25  1  0  0  0  0
  7 26  1  0  0  0  0
  8 27  1  0  0  0  0
  8 28  1  0  0  0  0
  8 29  1  0  0  0  0
 10 30  1  0  0  0  0
 10 31  1  0  0  0  0
 15 32  1  0  0  0  0
 15 33  1  0  0  0  0
 16 34  1  0  0  0  0
 16 35  1  0  0  0  0
 16 36  1  0  0  0  0
 18 37  1  0  0  0  0
 18 38  1  0  0  0  0
 19 39  1  0  0  0  0
 19 40  1  0  0  0  0
 19 41  1  0  0  0  0
M  END
