 xtb: 6.7.1 (edcfbbe)
          04092505203D

 41 40  0     0  0            999 V2000
    4.1921   -0.3339   -2.3906 C   0  0  0  0  0  0  0  0  0  0  0  0
    4.4325    0.4322   -1.1058 C   0  0  0  0  0  0  0  0  0  0  0  0
    3.7443   -0.1526    0.0123 O   0  0  0  0  0  0  0  0  0  0  0  0
    2.1590   -0.1837    0.1256 P   0  0  0  0  0  0  0  0  0  0  0  0
    1.2686    1.4731   -0.4622 S   0  0  0  0  0  0  0  0  0  0  0  0
    1.9427   -0.5711    1.6452 O   0  0  0  0  0  0  0  0  0  0  0  0
    1.8937    0.4092    2.7005 C   0  0  0  0  0  0  0  0  0  0  0  0
    3.2730    0.9272    3.0521 C   0  0  0  0  0  0  0  0  0  0  0  0
    1.6244   -2.0130   -0.7612 S   0  0  0  0  0  0  0  0  0  0  0  0
   -0.1300   -1.6932   -1.0801 C   0  0  0  0  0  0  0  0  0  0  0  0
   -1.0644   -1.2705    0.4223 S   0  0  0  0  0  0  0  0  0  0  0  0
   -2.1534    0.4293   -0.2971 P   0  0  0  0  0  0  0  0  0  0  0  0
   -1.9159    0.9206   -2.1729 S   0  0  0  0  0  0  0  0  0  0  0  0
   -1.8115    1.5978    0.7019 O   0  0  0  0  0  0  0  0  0  0  0  0
   -1.8138    1.4927    2.1449 C   0  0  0  0  0  0  0  0  0  0  0  0
   -3.1898    1.7401    2.7277 C   0  0  0  0  0  0  0  0  0  0  0  0
   -3.6625    0.0971    0.0988 O   0  0  0  0  0  0  0  0  0  0  0  0
   -4.5569   -0.6107   -0.7757 C   0  0  0  0  0  0  0  0  0  0  0  0
   -4.1188   -2.0404   -1.0207 C   0  0  0  0  0  0  0  0  0  0  0  0
    4.8273    0.0679   -3.1736 H   0  0  0  0  0  0  0  0  0  0  0  0
    4.4132   -1.3888   -2.2490 H   0  0  0  0  0  0  0  0  0  0  0  0
    3.1511   -0.2313   -2.6959 H   0  0  0  0  0  0  0  0  0  0  0  0
    4.1008    1.4704   -1.2108 H   0  0  0  0  0  0  0  0  0  0  0  0
    5.4821    0.4043   -0.8100 H   0  0  0  0  0  0  0  0  0  0  0  0
    1.2424    1.2297    2.3804 H   0  0  0  0  0  0  0  0  0  0  0  0
    1.4375   -0.1256    3.5348 H   0  0  0  0  0  0  0  0  0  0  0  0
    3.9405    0.0963    3.2627 H   0  0  0  0  0  0  0  0  0  0  0  0
    3.6790    1.5023    2.2219 H   0  0  0  0  0  0  0  0  0  0  0  0
    3.2033    1.5671    3.9262 H   0  0  0  0  0  0  0  0  0  0  0  0
   -0.5213   -2.6221   -1.4882 H   0  0  0  0  0  0  0  0  0  0  0  0
   -0.2405   -0.8714   -1.7938 H   0  0  0  0  0  0  0  0  0  0  0  0
   -1.4370    0.5044    2.4260 H   0  0  0  0  0  0  0  0  0  0  0  0
   -1.1067    2.2630    2.4607 H   0  0  0  0  0  0  0  0  0  0  0  0
   -3.1127    1.7615    3.8104 H   0  0  0  0  0  0  0  0  0  0  0  0
   -3.5756    2.6931    2.3759 H   0  0  0  0  0  0  0  0  0  0  0  0
   -3.8758    0.9518    2.4316 H   0  0  0  0  0  0  0  0  0  0  0  0
   -5.5158   -0.5662   -0.2574 H   0  0  0  0  0  0  0  0  0  0  0  0
   -4.6186   -0.0620   -1.7204 H   0  0  0  0  0  0  0  0  0  0  0  0
   -3.2071   -2.0488   -1.6165 H   0  0  0  0  0  0  0  0  0  0  0  0
   -3.9333   -2.5482   -0.0776 H   0  0  0  0  0  0  0  0  0  0  0  0
   -4.8975   -2.5638   -1.5660 H   0  0  0  0  0  0  0  0  0  0  0  0
  1  2  1  0  0  0  0
  2  3  1  0  0  0  0
  3  4  2  0  0  0  0
  4  5  2  0  0  0  0
  4  6  2  0  0  0  0
  6  7  1  0  0  0  0
  7  8  1  0  0  0  0
  4  9  1  0  0  0  0
  9 10  1  0  0  0  0
 10 11  1  0  0  0  0
 11 12  1  0  0  0  0
 12 13  2  0  0  0  0
 12 14  2  0  0  0  0
 14 15  1  0  0  0  0
 15 16  1  0  0  0  0
 12 17  2  0  0  0  0
 17 18  1  0  0  0  0
 18 19  1  0  0  0  0
  1 20  1  0  0  0  0
  1 21  1  0  0  0  0
  1 22  1  0  0  0  0
  2 23  1  0  0  0  0
  2 24  1  0  0  0  0
  7 25  1  0  0  0  0
  7 26  1  0  0  0  0
  8 27  1  0  0  0  0
  8 28  1  0  0  0  0
  8 29  1  0  0  0  0
 10 30  1  0  0  0  0
 10 31  1  0  0  0  0
 15 32  1  0  0  0  0
 15 33  1  0  0  0  0
 16 34  1  0  0  0  0
 16 35  1  0  0  0  0
 16 36  1  0  0  0  0
 18 37  1  0  0  0  0
 18 38  1  0  0  0  0
 19 39  1  0  0  0  0
 19 40  1  0  0  0  0
 19 41  1  0  0  0  0
M  END
