 xtb: 6.7.1 (edcfbbe)
          04092507313D

 38 37  0     0  0            999 V2000
    1.9170   -3.3089    0.2410 C   0  0  0  0  0  0  0  0  0  0  0  0
    2.8640   -2.8584   -0.8602 C   0  0  0  0  0  0  0  0  0  0  0  0
    2.2559   -1.8056   -1.6311 O   0  0  0  0  0  0  0  0  0  0  0  0
    2.4380   -0.5599   -1.2536 C   0  0  0  0  0  0  0  0  0  0  0  0
    3.1645   -0.2061   -0.3490 O   0  0  0  0  0  0  0  0  0  0  0  0
    1.5796    0.3974   -2.0600 C   0  0  0  0  0  0  0  0  0  0  0  0
    0.3382    0.7209   -1.2218 C   0  0  0  0  0  0  0  0  0  0  0  0
   -0.2293    1.5357   -1.6764 H   0  0  0  0  0  0  0  0  0  0  0  0
    0.7605    1.1151    0.1848 C   0  0  0  0  0  0  0  0  0  0  0  0
    0.6024    0.3853    1.1438 O   0  0  0  0  0  0  0  0  0  0  0  0
    1.3078    2.2971    0.1967 O   0  0  0  0  0  0  0  0  0  0  0  0
    1.8395    2.8107    1.4353 C   0  0  0  0  0  0  0  0  0  0  0  0
    3.3572    2.7463    1.4071 C   0  0  0  0  0  0  0  0  0  0  0  0
   -0.7420   -0.7439   -1.0932 S   0  0  0  0  0  0  0  0  0  0  0  0
   -2.0368   -0.0164    0.4213 P   0  0  0  0  0  0  0  0  0  0  0  0
   -2.1421    1.9301    0.6080 S   0  0  0  0  0  0  0  0  0  0  0  0
   -3.4265   -0.6905   -0.0084 O   0  0  0  0  0  0  0  0  0  0  0  0
   -4.1196   -0.2742   -1.1904 C   0  0  0  0  0  0  0  0  0  0  0  0
   -1.7900   -0.7770    1.7812 O   0  0  0  0  0  0  0  0  0  0  0  0
   -1.7651   -2.2163    1.8632 C   0  0  0  0  0  0  0  0  0  0  0  0
    2.3742   -4.1118    0.8092 H   0  0  0  0  0  0  0  0  0  0  0  0
    1.7051   -2.4767    0.9116 H   0  0  0  0  0  0  0  0  0  0  0  0
    0.9848   -3.6580   -0.1953 H   0  0  0  0  0  0  0  0  0  0  0  0
    3.0507   -3.6572   -1.5778 H   0  0  0  0  0  0  0  0  0  0  0  0
    3.8046   -2.4891   -0.4415 H   0  0  0  0  0  0  0  0  0  0  0  0
    1.2822   -0.0698   -2.9972 H   0  0  0  0  0  0  0  0  0  0  0  0
    2.1314    1.3210   -2.2345 H   0  0  0  0  0  0  0  0  0  0  0  0
    1.4776    3.8386    1.4937 H   0  0  0  0  0  0  0  0  0  0  0  0
    1.4282    2.2206    2.2590 H   0  0  0  0  0  0  0  0  0  0  0  0
    3.7484    3.0941    2.3572 H   0  0  0  0  0  0  0  0  0  0  0  0
    3.6794    1.7208    1.2379 H   0  0  0  0  0  0  0  0  0  0  0  0
    3.7431    3.3706    0.6069 H   0  0  0  0  0  0  0  0  0  0  0  0
   -5.1020   -0.7350   -1.1297 H   0  0  0  0  0  0  0  0  0  0  0  0
   -3.5842   -0.6207   -2.0741 H   0  0  0  0  0  0  0  0  0  0  0  0
   -4.2083    0.8131   -1.2079 H   0  0  0  0  0  0  0  0  0  0  0  0
   -1.4321   -2.4362    2.8740 H   0  0  0  0  0  0  0  0  0  0  0  0
   -1.0629   -2.6184    1.1329 H   0  0  0  0  0  0  0  0  0  0  0  0
   -2.7633   -2.6107    1.6831 H   0  0  0  0  0  0  0  0  0  0  0  0
  1  2  1  0  0  0  0
  2  3  1  0  0  0  0
  3  4  4  0  0  0  0
  4  5  2  0  0  0  0
  4  6  1  0  0  0  0
  6  7  1  0  0  0  0
  7  8  1  0  0  0  0
  7  9  1  0  0  0  0
  9 10  2  0  0  0  0
  9 11  4  0  0  0  0
 11 12  1  0  0  0  0
 12 13  1  0  0  0  0
  7 14  1  0  0  0  0
 14 15  1  0  0  0  0
 15 16  2  0  0  0  0
 15 17  1  0  0  0  0
 17 18  1  0  0  0  0
 15 19  2  0  0  0  0
 19 20  1  0  0  0  0
  1 21  1  0  0  0  0
  1 22  1  0  0  0  0
  1 23  1  0  0  0  0
  2 24  1  0  0  0  0
  2 25  1  0  0  0  0
  6 26  1  0  0  0  0
  6 27  1  0  0  0  0
 12 28  1  0  0  0  0
 12 29  1  0  0  0  0
 13 30  1  0  0  0  0
 13 31  1  0  0  0  0
 13 32  1  0  0  0  0
 18 33  1  0  0  0  0
 18 34  1  0  0  0  0
 18 35  1  0  0  0  0
 20 36  1  0  0  0  0
 20 37  1  0  0  0  0
 20 38  1  0  0  0  0
M  END
