 xtb: 6.7.1 (edcfbbe)
          04092505213D

 41 40  0     0  0            999 V2000
    5.4978   -1.6770   -0.9793 C   0  0  0  0  0  0  0  0  0  0  0  0
    4.4010   -0.9263   -1.7056 C   0  0  0  0  0  0  0  0  0  0  0  0
    3.9935    0.2478   -0.9561 O   0  0  0  0  0  0  0  0  0  0  0  0
    2.7684    0.2662    0.0284 P   0  0  0  0  0  0  0  0  0  0  0  0
    2.5013    2.0398    0.8080 S   0  0  0  0  0  0  0  0  0  0  0  0
    3.1396   -0.8902    1.0571 O   0  0  0  0  0  0  0  0  0  0  0  0
    2.2255   -1.3256    2.0842 C   0  0  0  0  0  0  0  0  0  0  0  0
    1.7693   -2.7419    1.7902 C   0  0  0  0  0  0  0  0  0  0  0  0
    1.1247   -0.5118   -1.1070 S   0  0  0  0  0  0  0  0  0  0  0  0
   -0.0760    0.7931   -0.7753 C   0  0  0  0  0  0  0  0  0  0  0  0
   -0.9921    0.5356    0.7756 S   0  0  0  0  0  0  0  0  0  0  0  0
   -2.9494    0.1817   -0.0038 P   0  0  0  0  0  0  0  0  0  0  0  0
   -3.1459    0.2960   -1.9568 S   0  0  0  0  0  0  0  0  0  0  0  0
   -3.8899    1.1312    0.8467 O   0  0  0  0  0  0  0  0  0  0  0  0
   -4.2038    2.4719    0.4336 C   0  0  0  0  0  0  0  0  0  0  0  0
   -2.9910    3.3819    0.4381 C   0  0  0  0  0  0  0  0  0  0  0  0
   -3.4409   -1.1625    0.6682 O   0  0  0  0  0  0  0  0  0  0  0  0
   -3.2087   -2.4518    0.0705 C   0  0  0  0  0  0  0  0  0  0  0  0
   -1.7476   -2.8511    0.1212 C   0  0  0  0  0  0  0  0  0  0  0  0
    5.8175   -2.5155   -1.5901 H   0  0  0  0  0  0  0  0  0  0  0  0
    6.3440   -1.0188   -0.8018 H   0  0  0  0  0  0  0  0  0  0  0  0
    5.1354   -2.0443   -0.0233 H   0  0  0  0  0  0  0  0  0  0  0  0
    3.5256   -1.5598   -1.8731 H   0  0  0  0  0  0  0  0  0  0  0  0
    4.7544   -0.5278   -2.6582 H   0  0  0  0  0  0  0  0  0  0  0  0
    2.7858   -1.2723    3.0197 H   0  0  0  0  0  0  0  0  0  0  0  0
    1.3782   -0.6337    2.1376 H   0  0  0  0  0  0  0  0  0  0  0  0
    2.6274   -3.4061    1.7430 H   0  0  0  0  0  0  0  0  0  0  0  0
    1.1055   -3.0729    2.5822 H   0  0  0  0  0  0  0  0  0  0  0  0
    1.2428   -2.7798    0.8399 H   0  0  0  0  0  0  0  0  0  0  0  0
   -0.7847    0.7972   -1.6070 H   0  0  0  0  0  0  0  0  0  0  0  0
    0.4559    1.7407   -0.6901 H   0  0  0  0  0  0  0  0  0  0  0  0
   -4.6494    2.4326   -0.5658 H   0  0  0  0  0  0  0  0  0  0  0  0
   -4.9512    2.7987    1.1580 H   0  0  0  0  0  0  0  0  0  0  0  0
   -2.4818    3.3332    1.3977 H   0  0  0  0  0  0  0  0  0  0  0  0
   -2.2948    3.0843   -0.3458 H   0  0  0  0  0  0  0  0  0  0  0  0
   -3.3081    4.4032    0.2520 H   0  0  0  0  0  0  0  0  0  0  0  0
   -3.8294   -3.1261    0.6625 H   0  0  0  0  0  0  0  0  0  0  0  0
   -3.5698   -2.4279   -0.9628 H   0  0  0  0  0  0  0  0  0  0  0  0
   -1.3702   -2.7482    1.1354 H   0  0  0  0  0  0  0  0  0  0  0  0
   -1.6466   -3.8833   -0.1986 H   0  0  0  0  0  0  0  0  0  0  0  0
   -1.1597   -2.2196   -0.5450 H   0  0  0  0  0  0  0  0  0  0  0  0
  1  2  1  0  0  0  0
  2  3  1  0  0  0  0
  3  4  2  0  0  0  0
  4  5  2  0  0  0  0
  4  6  2  0  0  0  0
  6  7  1  0  0  0  0
  7  8  1  0  0  0  0
  4  9  1  0  0  0  0
  9 10  1  0  0  0  0
 10 11  1  0  0  0  0
 11 12  1  0  0  0  0
 12 13  2  0  0  0  0
 12 14  2  0  0  0  0
 14 15  1  0  0  0  0
 15 16  1  0  0  0  0
 12 17  2  0  0  0  0
 17 18  1  0  0  0  0
 18 19  1  0  0  0  0
  1 20  1  0  0  0  0
  1 21  1  0  0  0  0
  1 22  1  0  0  0  0
  2 23  1  0  0  0  0
  2 24  1  0  0  0  0
  7 25  1  0  0  0  0
  7 26  1  0  0  0  0
  8 27  1  0  0  0  0
  8 28  1  0  0  0  0
  8 29  1  0  0  0  0
 10 30  1  0  0  0  0
 10 31  1  0  0  0  0
 15 32  1  0  0  0  0
 15 33  1  0  0  0  0
 16 34  1  0  0  0  0
 16 35  1  0  0  0  0
 16 36  1  0  0  0  0
 18 37  1  0  0  0  0
 18 38  1  0  0  0  0
 19 39  1  0  0  0  0
 19 40  1  0  0  0  0
 19 41  1  0  0  0  0
M  END
