 xtb: 6.7.1 (edcfbbe)
          04092505213D

 41 40  0     0  0            999 V2000
    5.2191   -2.5206   -1.0031 C   0  0  0  0  0  0  0  0  0  0  0  0
    4.1846   -1.4643   -1.3355 C   0  0  0  0  0  0  0  0  0  0  0  0
    3.2331   -1.4213   -0.2534 O   0  0  0  0  0  0  0  0  0  0  0  0
    2.2696   -0.1800   -0.0386 P   0  0  0  0  0  0  0  0  0  0  0  0
    3.1400    1.5824   -0.0704 S   0  0  0  0  0  0  0  0  0  0  0  0
    1.5236   -0.5699    1.2985 O   0  0  0  0  0  0  0  0  0  0  0  0
    1.9557   -0.0809    2.5865 C   0  0  0  0  0  0  0  0  0  0  0  0
    3.2767   -0.6961    2.9954 C   0  0  0  0  0  0  0  0  0  0  0  0
    0.7485   -0.4802   -1.4756 S   0  0  0  0  0  0  0  0  0  0  0  0
   -0.0052    1.1592   -1.2895 C   0  0  0  0  0  0  0  0  0  0  0  0
   -0.9379    1.3385    0.2448 S   0  0  0  0  0  0  0  0  0  0  0  0
   -2.8112    0.5234   -0.4033 P   0  0  0  0  0  0  0  0  0  0  0  0
   -3.0425    0.5124   -2.3479 S   0  0  0  0  0  0  0  0  0  0  0  0
   -3.9047    1.3892    0.3210 O   0  0  0  0  0  0  0  0  0  0  0  0
   -4.2990    1.2638    1.7115 C   0  0  0  0  0  0  0  0  0  0  0  0
   -3.1460    1.4911    2.6647 C   0  0  0  0  0  0  0  0  0  0  0  0
   -2.9966   -0.8906    0.3058 O   0  0  0  0  0  0  0  0  0  0  0  0
   -2.3684   -2.1018   -0.1552 C   0  0  0  0  0  0  0  0  0  0  0  0
   -1.3300   -2.5665    0.8469 C   0  0  0  0  0  0  0  0  0  0  0  0
    5.7501   -2.2535   -0.0939 H   0  0  0  0  0  0  0  0  0  0  0  0
    4.7324   -3.4806   -0.8582 H   0  0  0  0  0  0  0  0  0  0  0  0
    5.9270   -2.5956   -1.8219 H   0  0  0  0  0  0  0  0  0  0  0  0
    3.6456   -1.7081   -2.2550 H   0  0  0  0  0  0  0  0  0  0  0  0
    4.6403   -0.4736   -1.4406 H   0  0  0  0  0  0  0  0  0  0  0  0
    2.0307    1.0098    2.5359 H   0  0  0  0  0  0  0  0  0  0  0  0
    1.1467   -0.3652    3.2601 H   0  0  0  0  0  0  0  0  0  0  0  0
    4.0599   -0.3705    2.3116 H   0  0  0  0  0  0  0  0  0  0  0  0
    3.5299   -0.3745    4.0007 H   0  0  0  0  0  0  0  0  0  0  0  0
    3.2117   -1.7803    2.9647 H   0  0  0  0  0  0  0  0  0  0  0  0
   -0.6773    1.2977   -2.1380 H   0  0  0  0  0  0  0  0  0  0  0  0
    0.7833    1.9121   -1.2756 H   0  0  0  0  0  0  0  0  0  0  0  0
   -5.0688    2.0295    1.8188 H   0  0  0  0  0  0  0  0  0  0  0  0
   -4.7350    0.2731    1.8519 H   0  0  0  0  0  0  0  0  0  0  0  0
   -2.3966    0.7115    2.5406 H   0  0  0  0  0  0  0  0  0  0  0  0
   -2.6797    2.4550    2.4763 H   0  0  0  0  0  0  0  0  0  0  0  0
   -3.5176    1.4657    3.6844 H   0  0  0  0  0  0  0  0  0  0  0  0
   -3.1780   -2.8289   -0.2482 H   0  0  0  0  0  0  0  0  0  0  0  0
   -1.9277   -1.9316   -1.1430 H   0  0  0  0  0  0  0  0  0  0  0  0
   -1.7897   -2.7050    1.8213 H   0  0  0  0  0  0  0  0  0  0  0  0
   -0.9109   -3.5088    0.5093 H   0  0  0  0  0  0  0  0  0  0  0  0
   -0.5265   -1.8392    0.9353 H   0  0  0  0  0  0  0  0  0  0  0  0
  1  2  1  0  0  0  0
  2  3  1  0  0  0  0
  3  4  2  0  0  0  0
  4  5  2  0  0  0  0
  4  6  2  0  0  0  0
  6  7  1  0  0  0  0
  7  8  1  0  0  0  0
  4  9  1  0  0  0  0
  9 10  1  0  0  0  0
 10 11  1  0  0  0  0
 11 12  1  0  0  0  0
 12 13  2  0  0  0  0
 12 14  2  0  0  0  0
 14 15  1  0  0  0  0
 15 16  1  0  0  0  0
 12 17  2  0  0  0  0
 17 18  1  0  0  0  0
 18 19  1  0  0  0  0
  1 20  1  0  0  0  0
  1 21  1  0  0  0  0
  1 22  1  0  0  0  0
  2 23  1  0  0  0  0
  2 24  1  0  0  0  0
  7 25  1  0  0  0  0
  7 26  1  0  0  0  0
  8 27  1  0  0  0  0
  8 28  1  0  0  0  0
  8 29  1  0  0  0  0
 10 30  1  0  0  0  0
 10 31  1  0  0  0  0
 15 32  1  0  0  0  0
 15 33  1  0  0  0  0
 16 34  1  0  0  0  0
 16 35  1  0  0  0  0
 16 36  1  0  0  0  0
 18 37  1  0  0  0  0
 18 38  1  0  0  0  0
 19 39  1  0  0  0  0
 19 40  1  0  0  0  0
 19 41  1  0  0  0  0
M  END
