 xtb: 6.7.1 (edcfbbe)
          04092514033D

 41 40  0     0  0            999 V2000
    4.2193    0.1188   -2.7217 C   0  0  0  0  0  0  0  0  0  0  0  0
    4.4664    0.7333   -1.3589 C   0  0  0  0  0  0  0  0  0  0  0  0
    3.8385   -0.0088   -0.3004 O   0  0  0  0  0  0  0  0  0  0  0  0
    2.2717   -0.0670   -0.0417 P   0  0  0  0  0  0  0  0  0  0  0  0
    1.2990    1.6000   -0.4193 S   0  0  0  0  0  0  0  0  0  0  0  0
    2.1964   -0.5774    1.4562 O   0  0  0  0  0  0  0  0  0  0  0  0
    2.1196    0.3274    2.5754 C   0  0  0  0  0  0  0  0  0  0  0  0
    3.4272    1.0524    2.8136 C   0  0  0  0  0  0  0  0  0  0  0  0
    1.7143   -1.8382   -1.0368 S   0  0  0  0  0  0  0  0  0  0  0  0
    0.0307   -2.0951   -0.4127 C   0  0  0  0  0  0  0  0  0  0  0  0
   -1.2801   -1.2922   -1.4056 S   0  0  0  0  0  0  0  0  0  0  0  0
   -2.1596   -0.0003    0.0177 P   0  0  0  0  0  0  0  0  0  0  0  0
   -1.4714   -0.1257    1.8539 S   0  0  0  0  0  0  0  0  0  0  0  0
   -3.7184   -0.2964   -0.1244 O   0  0  0  0  0  0  0  0  0  0  0  0
   -4.3237   -1.5092    0.3659 C   0  0  0  0  0  0  0  0  0  0  0  0
   -5.8296   -1.3587    0.2678 C   0  0  0  0  0  0  0  0  0  0  0  0
   -2.0666    1.3979   -0.7040 O   0  0  0  0  0  0  0  0  0  0  0  0
   -2.1116    2.6526    0.0045 C   0  0  0  0  0  0  0  0  0  0  0  0
   -3.4993    2.9573    0.5277 C   0  0  0  0  0  0  0  0  0  0  0  0
    4.5318   -0.9220   -2.7337 H   0  0  0  0  0  0  0  0  0  0  0  0
    3.1592    0.1687   -2.9680 H   0  0  0  0  0  0  0  0  0  0  0  0
    4.7810    0.6725   -3.4681 H   0  0  0  0  0  0  0  0  0  0  0  0
    4.0964    1.7631   -1.3279 H   0  0  0  0  0  0  0  0  0  0  0  0
    5.5260    0.7105   -1.0980 H   0  0  0  0  0  0  0  0  0  0  0  0
    1.3072    1.0385    2.3913 H   0  0  0  0  0  0  0  0  0  0  0  0
    1.8501   -0.3155    3.4145 H   0  0  0  0  0  0  0  0  0  0  0  0
    3.3435    1.6471    3.7183 H   0  0  0  0  0  0  0  0  0  0  0  0
    4.2393    0.3388    2.9225 H   0  0  0  0  0  0  0  0  0  0  0  0
    3.6458    1.7130    1.9755 H   0  0  0  0  0  0  0  0  0  0  0  0
   -0.0412   -1.7414    0.6192 H   0  0  0  0  0  0  0  0  0  0  0  0
   -0.1356   -3.1671   -0.4747 H   0  0  0  0  0  0  0  0  0  0  0  0
   -3.9699   -2.3429   -0.2477 H   0  0  0  0  0  0  0  0  0  0  0  0
   -4.0035   -1.6644    1.4014 H   0  0  0  0  0  0  0  0  0  0  0  0
   -6.3002   -2.2716    0.6189 H   0  0  0  0  0  0  0  0  0  0  0  0
   -6.1671   -0.5258    0.8779 H   0  0  0  0  0  0  0  0  0  0  0  0
   -6.1198   -1.1794   -0.7633 H   0  0  0  0  0  0  0  0  0  0  0  0
   -1.3813    2.6178    0.8196 H   0  0  0  0  0  0  0  0  0  0  0  0
   -1.7836    3.3806   -0.7386 H   0  0  0  0  0  0  0  0  0  0  0  0
   -4.2225    2.9185   -0.2825 H   0  0  0  0  0  0  0  0  0  0  0  0
   -3.7798    2.2286    1.2872 H   0  0  0  0  0  0  0  0  0  0  0  0
   -3.5028    3.9490    0.9698 H   0  0  0  0  0  0  0  0  0  0  0  0
  1  2  1  0  0  0  0
  2  3  1  0  0  0  0
  3  4  2  0  0  0  0
  4  5  2  0  0  0  0
  4  6  2  0  0  0  0
  6  7  1  0  0  0  0
  7  8  1  0  0  0  0
  4  9  1  0  0  0  0
  9 10  1  0  0  0  0
 10 11  1  0  0  0  0
 11 12  1  0  0  0  0
 12 13  2  0  0  0  0
 12 14  2  0  0  0  0
 14 15  1  0  0  0  0
 15 16  1  0  0  0  0
 12 17  2  0  0  0  0
 17 18  1  0  0  0  0
 18 19  1  0  0  0  0
  1 20  1  0  0  0  0
  1 21  1  0  0  0  0
  1 22  1  0  0  0  0
  2 23  1  0  0  0  0
  2 24  1  0  0  0  0
  7 25  1  0  0  0  0
  7 26  1  0  0  0  0
  8 27  1  0  0  0  0
  8 28  1  0  0  0  0
  8 29  1  0  0  0  0
 10 30  1  0  0  0  0
 10 31  1  0  0  0  0
 15 32  1  0  0  0  0
 15 33  1  0  0  0  0
 16 34  1  0  0  0  0
 16 35  1  0  0  0  0
 16 36  1  0  0  0  0
 18 37  1  0  0  0  0
 18 38  1  0  0  0  0
 19 39  1  0  0  0  0
 19 40  1  0  0  0  0
 19 41  1  0  0  0  0
M  END
