 xtb: 6.7.1 (edcfbbe)
          04092513583D

 41 40  0     0  0            999 V2000
    2.8215   -2.7461    1.3454 C   0  0  0  0  0  0  0  0  0  0  0  0
    1.6101   -2.2512    0.5816 C   0  0  0  0  0  0  0  0  0  0  0  0
    1.4741   -0.8251    0.7099 O   0  0  0  0  0  0  0  0  0  0  0  0
    2.2838    0.2164   -0.1980 P   0  0  0  0  0  0  0  0  0  0  0  0
    3.1807   -0.5111   -1.7692 S   0  0  0  0  0  0  0  0  0  0  0  0
    3.2942    0.9362    0.7825 O   0  0  0  0  0  0  0  0  0  0  0  0
    2.8828    1.5061    2.0525 C   0  0  0  0  0  0  0  0  0  0  0  0
    4.1081    2.1152    2.7009 C   0  0  0  0  0  0  0  0  0  0  0  0
    0.7860    1.6930   -0.5156 S   0  0  0  0  0  0  0  0  0  0  0  0
    0.1091    0.9795   -2.0362 C   0  0  0  0  0  0  0  0  0  0  0  0
   -0.5650   -0.6893   -1.8092 S   0  0  0  0  0  0  0  0  0  0  0  0
   -2.1777   -0.1663   -0.5327 P   0  0  0  0  0  0  0  0  0  0  0  0
   -3.0181    1.5825   -0.8160 S   0  0  0  0  0  0  0  0  0  0  0  0
   -1.6815   -0.4435    0.9531 O   0  0  0  0  0  0  0  0  0  0  0  0
   -1.3707    0.5632    1.9320 C   0  0  0  0  0  0  0  0  0  0  0  0
   -2.0800    0.2277    3.2294 C   0  0  0  0  0  0  0  0  0  0  0  0
   -3.0428   -1.4511   -0.8500 O   0  0  0  0  0  0  0  0  0  0  0  0
   -4.4711   -1.4990   -0.6436 C   0  0  0  0  0  0  0  0  0  0  0  0
   -4.8406   -1.4201    0.8231 C   0  0  0  0  0  0  0  0  0  0  0  0
    2.7507   -2.4670    2.3934 H   0  0  0  0  0  0  0  0  0  0  0  0
    2.8802   -3.8269    1.2649 H   0  0  0  0  0  0  0  0  0  0  0  0
    3.7250   -2.3091    0.9213 H   0  0  0  0  0  0  0  0  0  0  0  0
    0.6775   -2.6501    0.9844 H   0  0  0  0  0  0  0  0  0  0  0  0
    1.6882   -2.5051   -0.4804 H   0  0  0  0  0  0  0  0  0  0  0  0
    2.1157    2.2605    1.8563 H   0  0  0  0  0  0  0  0  0  0  0  0
    2.4596    0.7070    2.6658 H   0  0  0  0  0  0  0  0  0  0  0  0
    4.8684    1.3546    2.8535 H   0  0  0  0  0  0  0  0  0  0  0  0
    4.5175    2.8949    2.0654 H   0  0  0  0  0  0  0  0  0  0  0  0
    3.8273    2.5420    3.6584 H   0  0  0  0  0  0  0  0  0  0  0  0
    0.8988    0.8920   -2.7815 H   0  0  0  0  0  0  0  0  0  0  0  0
   -0.6781    1.6565   -2.3670 H   0  0  0  0  0  0  0  0  0  0  0  0
   -0.2858    0.5562    2.0620 H   0  0  0  0  0  0  0  0  0  0  0  0
   -1.6801    1.5417    1.5488 H   0  0  0  0  0  0  0  0  0  0  0  0
   -1.8190   -0.7775    3.5472 H   0  0  0  0  0  0  0  0  0  0  0  0
   -1.7739    0.9372    3.9912 H   0  0  0  0  0  0  0  0  0  0  0  0
   -3.1572    0.2884    3.1011 H   0  0  0  0  0  0  0  0  0  0  0  0
   -4.9289   -0.6763   -1.2015 H   0  0  0  0  0  0  0  0  0  0  0  0
   -4.7632   -2.4532   -1.0843 H   0  0  0  0  0  0  0  0  0  0  0  0
   -5.9076   -1.5869    0.9344 H   0  0  0  0  0  0  0  0  0  0  0  0
   -4.2957   -2.1710    1.3893 H   0  0  0  0  0  0  0  0  0  0  0  0
   -4.5956   -0.4325    1.2112 H   0  0  0  0  0  0  0  0  0  0  0  0
  1  2  1  0  0  0  0
  2  3  1  0  0  0  0
  3  4  1  0  0  0  0
  4  5  2  0  0  0  0
  4  6  2  0  0  0  0
  6  7  1  0  0  0  0
  7  8  1  0  0  0  0
  4  9  1  0  0  0  0
  9 10  1  0  0  0  0
 10 11  1  0  0  0  0
 11 12  1  0  0  0  0
 12 13  2  0  0  0  0
 12 14  2  0  0  0  0
 14 15  1  0  0  0  0
 15 16  1  0  0  0  0
 12 17  2  0  0  0  0
 17 18  1  0  0  0  0
 18 19  1  0  0  0  0
  1 20  1  0  0  0  0
  1 21  1  0  0  0  0
  1 22  1  0  0  0  0
  2 23  1  0  0  0  0
  2 24  1  0  0  0  0
  7 25  1  0  0  0  0
  7 26  1  0  0  0  0
  8 27  1  0  0  0  0
  8 28  1  0  0  0  0
  8 29  1  0  0  0  0
 10 30  1  0  0  0  0
 10 31  1  0  0  0  0
 15 32  1  0  0  0  0
 15 33  1  0  0  0  0
 16 34  1  0  0  0  0
 16 35  1  0  0  0  0
 16 36  1  0  0  0  0
 18 37  1  0  0  0  0
 18 38  1  0  0  0  0
 19 39  1  0  0  0  0
 19 40  1  0  0  0  0
 19 41  1  0  0  0  0
M  END
