 xtb: 6.7.1 (edcfbbe)
          04092505203D

 41 40  0     0  0            999 V2000
    2.4930    2.4863    2.2588 C   0  0  0  0  0  0  0  0  0  0  0  0
    1.4709    2.0220    1.2415 C   0  0  0  0  0  0  0  0  0  0  0  0
    0.9802    0.6985    1.5631 O   0  0  0  0  0  0  0  0  0  0  0  0
    1.5520   -0.6134    0.8986 P   0  0  0  0  0  0  0  0  0  0  0  0
    0.7938   -2.2598    1.6346 S   0  0  0  0  0  0  0  0  0  0  0  0
    3.1149   -0.4391    1.1720 O   0  0  0  0  0  0  0  0  0  0  0  0
    4.0433   -1.5346    1.1194 C   0  0  0  0  0  0  0  0  0  0  0  0
    4.1825   -2.1201   -0.2712 C   0  0  0  0  0  0  0  0  0  0  0  0
    1.4209   -0.3290   -1.2120 S   0  0  0  0  0  0  0  0  0  0  0  0
    0.1927   -1.5898   -1.6220 C   0  0  0  0  0  0  0  0  0  0  0  0
   -1.3772   -0.9336   -2.2724 S   0  0  0  0  0  0  0  0  0  0  0  0
   -2.0042    0.3523   -0.7222 P   0  0  0  0  0  0  0  0  0  0  0  0
   -3.8884    0.8729   -0.8019 S   0  0  0  0  0  0  0  0  0  0  0  0
   -0.9858    1.5807   -0.6779 O   0  0  0  0  0  0  0  0  0  0  0  0
   -1.1685    2.7473   -1.4997 C   0  0  0  0  0  0  0  0  0  0  0  0
   -0.8307    2.4761   -2.9524 C   0  0  0  0  0  0  0  0  0  0  0  0
   -1.5239   -0.4629    0.5557 O   0  0  0  0  0  0  0  0  0  0  0  0
   -2.3099   -0.4875    1.7652 C   0  0  0  0  0  0  0  0  0  0  0  0
   -2.2072    0.8163    2.5264 C   0  0  0  0  0  0  0  0  0  0  0  0
    3.3754    1.8537    2.2245 H   0  0  0  0  0  0  0  0  0  0  0  0
    2.7762    3.5095    2.0323 H   0  0  0  0  0  0  0  0  0  0  0  0
    2.0702    2.4451    3.2590 H   0  0  0  0  0  0  0  0  0  0  0  0
    1.8918    2.0081    0.2324 H   0  0  0  0  0  0  0  0  0  0  0  0
    0.5798    2.6528    1.2576 H   0  0  0  0  0  0  0  0  0  0  0  0
    4.9811   -1.0968    1.4645 H   0  0  0  0  0  0  0  0  0  0  0  0
    3.7102   -2.3008    1.8263 H   0  0  0  0  0  0  0  0  0  0  0  0
    4.3911   -1.3363   -0.9949 H   0  0  0  0  0  0  0  0  0  0  0  0
    4.9955   -2.8391   -0.2736 H   0  0  0  0  0  0  0  0  0  0  0  0
    3.2635   -2.6304   -0.5554 H   0  0  0  0  0  0  0  0  0  0  0  0
    0.0016   -2.1965   -0.7334 H   0  0  0  0  0  0  0  0  0  0  0  0
    0.5875   -2.1933   -2.4359 H   0  0  0  0  0  0  0  0  0  0  0  0
   -2.2064    3.0813   -1.3979 H   0  0  0  0  0  0  0  0  0  0  0  0
   -0.4951    3.4872   -1.0643 H   0  0  0  0  0  0  0  0  0  0  0  0
    0.1613    2.0377   -3.0335 H   0  0  0  0  0  0  0  0  0  0  0  0
   -1.5558    1.7876   -3.3847 H   0  0  0  0  0  0  0  0  0  0  0  0
   -0.8588    3.4094   -3.5056 H   0  0  0  0  0  0  0  0  0  0  0  0
   -3.3496   -0.6985    1.4966 H   0  0  0  0  0  0  0  0  0  0  0  0
   -1.8946   -1.3237    2.3308 H   0  0  0  0  0  0  0  0  0  0  0  0
   -2.7801    0.7386    3.4450 H   0  0  0  0  0  0  0  0  0  0  0  0
   -1.1679    1.0278    2.7628 H   0  0  0  0  0  0  0  0  0  0  0  0
   -2.6113    1.6269    1.9210 H   0  0  0  0  0  0  0  0  0  0  0  0
  1  2  1  0  0  0  0
  2  3  1  0  0  0  0
  3  4  2  0  0  0  0
  4  5  2  0  0  0  0
  4  6  2  0  0  0  0
  6  7  1  0  0  0  0
  7  8  1  0  0  0  0
  4  9  1  0  0  0  0
  9 10  1  0  0  0  0
 10 11  1  0  0  0  0
 11 12  1  0  0  0  0
 12 13  2  0  0  0  0
 12 14  1  0  0  0  0
 14 15  1  0  0  0  0
 15 16  1  0  0  0  0
 12 17  1  0  0  0  0
 17 18  1  0  0  0  0
 18 19  1  0  0  0  0
  1 20  1  0  0  0  0
  1 21  1  0  0  0  0
  1 22  1  0  0  0  0
  2 23  1  0  0  0  0
  2 24  1  0  0  0  0
  7 25  1  0  0  0  0
  7 26  1  0  0  0  0
  8 27  1  0  0  0  0
  8 28  1  0  0  0  0
  8 29  1  0  0  0  0
 10 30  1  0  0  0  0
 10 31  1  0  0  0  0
 15 32  1  0  0  0  0
 15 33  1  0  0  0  0
 16 34  1  0  0  0  0
 16 35  1  0  0  0  0
 16 36  1  0  0  0  0
 18 37  1  0  0  0  0
 18 38  1  0  0  0  0
 19 39  1  0  0  0  0
 19 40  1  0  0  0  0
 19 41  1  0  0  0  0
M  END
