  26
 
 C          4.4406729851       -0.2705000515       -0.0015946980
 C          3.1490478455        0.5387322716       -0.0006795542
 C          1.9143567546       -0.3603094645       -0.0073460108
 C          0.6174903859        0.4451600283       -0.0071007332
 C         -0.6176893958       -0.4528431731       -0.0016749266
 C         -1.9131194721        0.3553628563       -0.0004631257
 C         -3.1516036466       -0.5381095049        0.0007722168
 C         -4.4388890107        0.2783119857        0.0008952556
 H          5.3047251026        0.3891224805        0.0037693479
 H          4.4892420337       -0.9095710639        0.8771204985
 H          4.4934106929       -0.9006692707       -0.8864259201
 H          3.1223856314        1.1788789537        0.8839731576
 H          3.1262499888        1.1877994631       -0.8789476115
 H          1.9404902936       -1.0025457148       -0.8906927614
 H          1.9358933580       -1.0081917571        0.8720792250
 H          0.5961670906        1.0925925745        0.8726692062
 H          0.5919888560        1.0885067589       -0.8897148964
 H         -0.5919434767       -1.0956795162        0.8813887282
 H         -0.5968590766       -1.1006113039       -0.8812724694
 H         -1.9357580897        1.0002538108       -0.8820813802
 H         -1.9342172788        1.0006302976        0.8808830809
 H         -3.1300657154       -1.1823253573        0.8825443931
 H         -3.1308995959       -1.1831995637       -0.8804299415
 H         -5.3070973794       -0.3759152664        0.0012693013
 H         -4.4858592736        0.9130860054       -0.8810256971
 H         -4.4854875896        0.9136466039        0.8824269112
          26
        -26.32330698
 C          4.4405136583       -0.2704127039       -0.0026792074
 C          3.1503779719        0.5410733418        0.0003416640
 C          1.9144118047       -0.3557666998        0.0027271205
 C          0.6174709218        0.4499521245       -0.0006033930
 C         -0.6172279282       -0.4485801869        0.0018565546
 C         -1.9145826932        0.3564538179        0.0016400142
 C         -3.1499371998       -0.5412370279       -0.0017133830
 C         -4.4409982206        0.2687280506       -0.0012248027
 H          5.3062612737        0.3871316119       -0.0061813787
 H          4.4932166172       -0.9042144979        0.8795770850
 H          4.4877434954       -0.9064944123       -0.8836782626
 H          3.1286819415        1.1857450028        0.8819425348
 H          3.1250433365        1.1859818797       -0.8809633196
 H          1.9383959421       -1.0038589435       -0.8766027093
 H          1.9375949527       -0.9982580267        0.8861725523
 H          0.5934711275        1.0985477933        0.8783479736
 H          0.5941939229        1.0922540934       -0.8842039706
 H         -0.5926899178       -1.0927830705        0.8840450059
 H         -0.5941205014       -1.0953645530       -0.8784901126
 H         -1.9374866887        1.0033464094       -0.8785505068
 H         -1.9397529276        1.0000434411        0.8841653169
 H         -3.1266994218       -1.1879388561        0.8782130289
 H         -3.1247793169       -1.1839698191       -0.8844773650
 H         -5.3060091032       -0.3898486849       -0.0045327717
 H         -4.4902687309        0.9061900595       -0.8810236894
 H         -4.4931334268        0.9009794964        0.8821344291
