20
 xtb: 6.7.1 (edcfbbe)
C            0.61791146939040        1.68604885469212        0.00697574470060
C            1.37460195839790        0.39343317339915       -0.25586462410847
H            1.59464447986357        0.30659636407444       -1.33118837626923
C            0.51274975532805       -0.78335042104891        0.17179620812992
H            0.35053956166900       -0.73102707280926        1.25783504456486
C           -0.83064657298833       -0.71876108532297       -0.55511159637768
H           -0.65867293121719       -0.84607645647841       -1.63336785226686
C           -1.50573458927690        0.64128200875549       -0.35222901717467
H           -2.35849066367233        0.74563155004133       -1.03502347025941
O           -0.63136438583544        1.69268650920044       -0.70838365296196
O           -1.94184174062460        0.82177790010902        0.98920430178033
O           -1.74630162600649       -1.70766406801341       -0.07379858424334
O            1.21438475768975       -1.99219044427093       -0.15996728498037
O            2.58976917617826        0.45794882656443        0.49596626104046
H            1.18026659086479        2.54515836636218       -0.36482317850486
H            0.44879818214382        1.80965836216913        1.08442333514107
H           -2.03625058753407       -0.05282549536525        1.39521895826384
H           -1.35460341699375       -2.57710586189012       -0.23420637134137
H            0.92854868653026       -2.68263232191317        0.45141714228593
H            3.04182334171340       -0.38846277109131        0.37561170573965
