 xtb: 6.7.1 (edcfbbe)
          04092505213D

 41 40  0     0  0            999 V2000
    4.7899   -1.4455    0.0868 C   0  0  0  0  0  0  0  0  0  0  0  0
    4.0028   -1.7419   -1.1709 C   0  0  0  0  0  0  0  0  0  0  0  0
    3.1700   -0.6334   -1.5867 O   0  0  0  0  0  0  0  0  0  0  0  0
    2.0473    0.0815   -0.7378 P   0  0  0  0  0  0  0  0  0  0  0  0
    0.8869    1.1039   -1.9366 S   0  0  0  0  0  0  0  0  0  0  0  0
    2.8901    0.9231    0.3078 O   0  0  0  0  0  0  0  0  0  0  0  0
    2.4459    2.1131    0.9775 C   0  0  0  0  0  0  0  0  0  0  0  0
    3.6481    3.0149    1.1705 C   0  0  0  0  0  0  0  0  0  0  0  0
    1.1382   -1.4942    0.3731 S   0  0  0  0  0  0  0  0  0  0  0  0
   -0.2942   -1.7923   -0.7152 C   0  0  0  0  0  0  0  0  0  0  0  0
   -1.8778   -1.8132    0.1560 S   0  0  0  0  0  0  0  0  0  0  0  0
   -2.1135    0.2723    0.5255 P   0  0  0  0  0  0  0  0  0  0  0  0
   -0.6994    1.1806    1.5280 S   0  0  0  0  0  0  0  0  0  0  0  0
   -3.5779    0.3299    1.1382 O   0  0  0  0  0  0  0  0  0  0  0  0
   -4.0731   -0.5177    2.1928 C   0  0  0  0  0  0  0  0  0  0  0  0
   -3.1827   -0.5127    3.4171 C   0  0  0  0  0  0  0  0  0  0  0  0
   -2.3067    1.0096   -0.8510 O   0  0  0  0  0  0  0  0  0  0  0  0
   -3.3576    0.7558   -1.8152 C   0  0  0  0  0  0  0  0  0  0  0  0
   -2.8797   -0.1773   -2.9109 C   0  0  0  0  0  0  0  0  0  0  0  0
    5.3741   -0.5378   -0.0380 H   0  0  0  0  0  0  0  0  0  0  0  0
    4.1133   -1.3151    0.9297 H   0  0  0  0  0  0  0  0  0  0  0  0
    5.4557   -2.2778    0.2932 H   0  0  0  0  0  0  0  0  0  0  0  0
    3.3621   -2.6159   -1.0276 H   0  0  0  0  0  0  0  0  0  0  0  0
    4.6557   -1.8956   -2.0312 H   0  0  0  0  0  0  0  0  0  0  0  0
    1.6724    2.5979    0.3723 H   0  0  0  0  0  0  0  0  0  0  0  0
    2.0013    1.8211    1.9324 H   0  0  0  0  0  0  0  0  0  0  0  0
    4.0648    3.2932    0.2061 H   0  0  0  0  0  0  0  0  0  0  0  0
    3.3356    3.9097    1.6987 H   0  0  0  0  0  0  0  0  0  0  0  0
    4.4076    2.4998    1.7511 H   0  0  0  0  0  0  0  0  0  0  0  0
   -0.1930   -2.7818   -1.1531 H   0  0  0  0  0  0  0  0  0  0  0  0
   -0.3050   -1.0111   -1.4807 H   0  0  0  0  0  0  0  0  0  0  0  0
   -5.0576   -0.1011    2.4132 H   0  0  0  0  0  0  0  0  0  0  0  0
   -4.1766   -1.5305    1.7938 H   0  0  0  0  0  0  0  0  0  0  0  0
   -3.6434   -1.1057    4.2005 H   0  0  0  0  0  0  0  0  0  0  0  0
   -2.2091   -0.9379    3.1756 H   0  0  0  0  0  0  0  0  0  0  0  0
   -3.0327    0.5039    3.7734 H   0  0  0  0  0  0  0  0  0  0  0  0
   -4.2303    0.3568   -1.2950 H   0  0  0  0  0  0  0  0  0  0  0  0
   -3.5853    1.7449   -2.2157 H   0  0  0  0  0  0  0  0  0  0  0  0
   -1.9282    0.1765   -3.3031 H   0  0  0  0  0  0  0  0  0  0  0  0
   -2.7585   -1.1904   -2.5350 H   0  0  0  0  0  0  0  0  0  0  0  0
   -3.6119   -0.1847   -3.7120 H   0  0  0  0  0  0  0  0  0  0  0  0
  1  2  1  0  0  0  0
  2  3  1  0  0  0  0
  3  4  2  0  0  0  0
  4  5  2  0  0  0  0
  4  6  2  0  0  0  0
  6  7  1  0  0  0  0
  7  8  1  0  0  0  0
  4  9  1  0  0  0  0
  9 10  1  0  0  0  0
 10 11  1  0  0  0  0
 11 12  1  0  0  0  0
 12 13  2  0  0  0  0
 12 14  2  0  0  0  0
 14 15  1  0  0  0  0
 15 16  1  0  0  0  0
 12 17  2  0  0  0  0
 17 18  1  0  0  0  0
 18 19  1  0  0  0  0
  1 20  1  0  0  0  0
  1 21  1  0  0  0  0
  1 22  1  0  0  0  0
  2 23  1  0  0  0  0
  2 24  1  0  0  0  0
  7 25  1  0  0  0  0
  7 26  1  0  0  0  0
  8 27  1  0  0  0  0
  8 28  1  0  0  0  0
  8 29  1  0  0  0  0
 10 30  1  0  0  0  0
 10 31  1  0  0  0  0
 15 32  1  0  0  0  0
 15 33  1  0  0  0  0
 16 34  1  0  0  0  0
 16 35  1  0  0  0  0
 16 36  1  0  0  0  0
 18 37  1  0  0  0  0
 18 38  1  0  0  0  0
 19 39  1  0  0  0  0
 19 40  1  0  0  0  0
 19 41  1  0  0  0  0
M  END
