 xtb: 6.7.1 (edcfbbe)
          04092507313D

 38 37  0     0  0            999 V2000
    5.3061   -2.3825   -0.8018 C   0  0  0  0  0  0  0  0  0  0  0  0
    3.9910   -3.0820   -1.1058 C   0  0  0  0  0  0  0  0  0  0  0  0
    3.1009   -2.2086   -1.8302 O   0  0  0  0  0  0  0  0  0  0  0  0
    2.3342   -1.3885   -1.1475 C   0  0  0  0  0  0  0  0  0  0  0  0
    2.2857   -1.3319    0.0645 O   0  0  0  0  0  0  0  0  0  0  0  0
    1.5075   -0.5009   -2.0541 C   0  0  0  0  0  0  0  0  0  0  0  0
    0.4566    0.2289   -1.2285 C   0  0  0  0  0  0  0  0  0  0  0  0
   -0.0221    1.0155   -1.8207 H   0  0  0  0  0  0  0  0  0  0  0  0
    1.1207    0.8890   -0.0291 C   0  0  0  0  0  0  0  0  0  0  0  0
    2.1260    1.5526   -0.1394 O   0  0  0  0  0  0  0  0  0  0  0  0
    0.4538    0.7027    1.0910 O   0  0  0  0  0  0  0  0  0  0  0  0
    0.9814    1.2858    2.3001 C   0  0  0  0  0  0  0  0  0  0  0  0
    0.4938    2.7123    2.4836 C   0  0  0  0  0  0  0  0  0  0  0  0
   -0.8516   -0.9387   -0.7073 S   0  0  0  0  0  0  0  0  0  0  0  0
   -2.1372    0.4686    0.1793 P   0  0  0  0  0  0  0  0  0  0  0  0
   -2.0067    2.3630   -0.2857 S   0  0  0  0  0  0  0  0  0  0  0  0
   -3.4894   -0.2366   -0.3441 O   0  0  0  0  0  0  0  0  0  0  0  0
   -4.7595    0.3893   -0.1216 C   0  0  0  0  0  0  0  0  0  0  0  0
   -2.1710    0.2668    1.7644 O   0  0  0  0  0  0  0  0  0  0  0  0
   -2.1819   -1.0497    2.3412 C   0  0  0  0  0  0  0  0  0  0  0  0
    5.9738   -3.0743   -0.2991 H   0  0  0  0  0  0  0  0  0  0  0  0
    5.7701   -2.0399   -1.7224 H   0  0  0  0  0  0  0  0  0  0  0  0
    5.1323   -1.5254   -0.1544 H   0  0  0  0  0  0  0  0  0  0  0  0
    3.4956   -3.3961   -0.1829 H   0  0  0  0  0  0  0  0  0  0  0  0
    4.1362   -3.9331   -1.7709 H   0  0  0  0  0  0  0  0  0  0  0  0
    1.0519   -1.0985   -2.8424 H   0  0  0  0  0  0  0  0  0  0  0  0
    2.1817    0.2292   -2.5078 H   0  0  0  0  0  0  0  0  0  0  0  0
    0.6184    0.6357    3.0965 H   0  0  0  0  0  0  0  0  0  0  0  0
    2.0723    1.2455    2.2394 H   0  0  0  0  0  0  0  0  0  0  0  0
    0.8605    3.3421    1.6759 H   0  0  0  0  0  0  0  0  0  0  0  0
   -0.5933    2.7395    2.4774 H   0  0  0  0  0  0  0  0  0  0  0  0
    0.8592    3.0966    3.4299 H   0  0  0  0  0  0  0  0  0  0  0  0
   -4.7426    1.4128   -0.4999 H   0  0  0  0  0  0  0  0  0  0  0  0
   -5.0004    0.3992    0.9418 H   0  0  0  0  0  0  0  0  0  0  0  0
   -5.4792   -0.2093   -0.6740 H   0  0  0  0  0  0  0  0  0  0  0  0
   -2.4856   -0.9104    3.3757 H   0  0  0  0  0  0  0  0  0  0  0  0
   -1.1816   -1.4790    2.2868 H   0  0  0  0  0  0  0  0  0  0  0  0
   -2.8856   -1.6941    1.8135 H   0  0  0  0  0  0  0  0  0  0  0  0
  1  2  1  0  0  0  0
  2  3  1  0  0  0  0
  3  4  4  0  0  0  0
  4  5  2  0  0  0  0
  4  6  1  0  0  0  0
  6  7  1  0  0  0  0
  7  8  1  0  0  0  0
  7  9  1  0  0  0  0
  9 10  2  0  0  0  0
  9 11  1  0  0  0  0
 11 12  1  0  0  0  0
 12 13  1  0  0  0  0
  7 14  1  0  0  0  0
 14 15  1  0  0  0  0
 15 16  2  0  0  0  0
 15 17  1  0  0  0  0
 17 18  1  0  0  0  0
 15 19  1  0  0  0  0
 19 20  1  0  0  0  0
  1 21  1  0  0  0  0
  1 22  1  0  0  0  0
  1 23  1  0  0  0  0
  2 24  1  0  0  0  0
  2 25  1  0  0  0  0
  6 26  1  0  0  0  0
  6 27  1  0  0  0  0
 12 28  1  0  0  0  0
 12 29  1  0  0  0  0
 13 30  1  0  0  0  0
 13 31  1  0  0  0  0
 13 32  1  0  0  0  0
 18 33  1  0  0  0  0
 18 34  1  0  0  0  0
 18 35  1  0  0  0  0
 20 36  1  0  0  0  0
 20 37  1  0  0  0  0
 20 38  1  0  0  0  0
M  END
