 xtb: 6.7.1 (edcfbbe)
          04092505213D

 41 40  0     0  0            999 V2000
    4.9878   -1.3420   -0.4291 C   0  0  0  0  0  0  0  0  0  0  0  0
    4.0973   -1.5353   -1.6368 C   0  0  0  0  0  0  0  0  0  0  0  0
    3.2137   -0.4124   -1.8812 O   0  0  0  0  0  0  0  0  0  0  0  0
    2.2104    0.2427   -0.8573 P   0  0  0  0  0  0  0  0  0  0  0  0
    0.9131    1.3299   -1.8461 S   0  0  0  0  0  0  0  0  0  0  0  0
    3.1907    1.0308    0.1053 O   0  0  0  0  0  0  0  0  0  0  0  0
    2.7936    1.9168    1.1656 C   0  0  0  0  0  0  0  0  0  0  0  0
    2.8152    1.2005    2.5011 C   0  0  0  0  0  0  0  0  0  0  0  0
    1.4173   -1.3790    0.2723 S   0  0  0  0  0  0  0  0  0  0  0  0
   -0.0541   -1.7134   -0.7499 C   0  0  0  0  0  0  0  0  0  0  0  0
   -1.5816   -1.8447    0.2077 S   0  0  0  0  0  0  0  0  0  0  0  0
   -2.0093    0.2304    0.4626 P   0  0  0  0  0  0  0  0  0  0  0  0
   -0.6874    1.2313    1.5017 S   0  0  0  0  0  0  0  0  0  0  0  0
   -3.4622    0.1956    1.0982 O   0  0  0  0  0  0  0  0  0  0  0  0
   -3.6641   -0.2113    2.4683 C   0  0  0  0  0  0  0  0  0  0  0  0
   -5.0481    0.2396    2.8876 C   0  0  0  0  0  0  0  0  0  0  0  0
   -2.2528    0.8594   -0.9573 O   0  0  0  0  0  0  0  0  0  0  0  0
   -3.4613    0.7499   -1.7505 C   0  0  0  0  0  0  0  0  0  0  0  0
   -3.7256   -0.6635   -2.2249 C   0  0  0  0  0  0  0  0  0  0  0  0
    5.6969   -2.1626   -0.3787 H   0  0  0  0  0  0  0  0  0  0  0  0
    5.5280   -0.4021   -0.5047 H   0  0  0  0  0  0  0  0  0  0  0  0
    4.3905   -1.3344    0.4807 H   0  0  0  0  0  0  0  0  0  0  0  0
    3.4822   -2.4315   -1.5224 H   0  0  0  0  0  0  0  0  0  0  0  0
    4.6755   -1.5967   -2.5599 H   0  0  0  0  0  0  0  0  0  0  0  0
    3.5274    2.7245    1.1362 H   0  0  0  0  0  0  0  0  0  0  0  0
    1.7996    2.3219    0.9536 H   0  0  0  0  0  0  0  0  0  0  0  0
    2.6027    1.9174    3.2872 H   0  0  0  0  0  0  0  0  0  0  0  0
    2.0524    0.4255    2.5272 H   0  0  0  0  0  0  0  0  0  0  0  0
    3.7903    0.7527    2.6700 H   0  0  0  0  0  0  0  0  0  0  0  0
    0.0725   -2.6781   -1.2336 H   0  0  0  0  0  0  0  0  0  0  0  0
   -0.1494   -0.9030   -1.4787 H   0  0  0  0  0  0  0  0  0  0  0  0
   -3.5640   -1.2987    2.5163 H   0  0  0  0  0  0  0  0  0  0  0  0
   -2.8853    0.2482    3.0858 H   0  0  0  0  0  0  0  0  0  0  0  0
   -5.7980   -0.2129    2.2455 H   0  0  0  0  0  0  0  0  0  0  0  0
   -5.2235   -0.0640    3.9143 H   0  0  0  0  0  0  0  0  0  0  0  0
   -5.1267    1.3208    2.8158 H   0  0  0  0  0  0  0  0  0  0  0  0
   -4.2936    1.1268   -1.1542 H   0  0  0  0  0  0  0  0  0  0  0  0
   -3.2631    1.4241   -2.5855 H   0  0  0  0  0  0  0  0  0  0  0  0
   -4.5785   -0.6516   -2.8964 H   0  0  0  0  0  0  0  0  0  0  0  0
   -2.8612   -1.0521   -2.7580 H   0  0  0  0  0  0  0  0  0  0  0  0
   -3.9466   -1.3151   -1.3826 H   0  0  0  0  0  0  0  0  0  0  0  0
  1  2  1  0  0  0  0
  2  3  1  0  0  0  0
  3  4  2  0  0  0  0
  4  5  2  0  0  0  0
  4  6  2  0  0  0  0
  6  7  1  0  0  0  0
  7  8  1  0  0  0  0
  4  9  1  0  0  0  0
  9 10  1  0  0  0  0
 10 11  1  0  0  0  0
 11 12  1  0  0  0  0
 12 13  2  0  0  0  0
 12 14  2  0  0  0  0
 14 15  1  0  0  0  0
 15 16  1  0  0  0  0
 12 17  2  0  0  0  0
 17 18  1  0  0  0  0
 18 19  1  0  0  0  0
  1 20  1  0  0  0  0
  1 21  1  0  0  0  0
  1 22  1  0  0  0  0
  2 23  1  0  0  0  0
  2 24  1  0  0  0  0
  7 25  1  0  0  0  0
  7 26  1  0  0  0  0
  8 27  1  0  0  0  0
  8 28  1  0  0  0  0
  8 29  1  0  0  0  0
 10 30  1  0  0  0  0
 10 31  1  0  0  0  0
 15 32  1  0  0  0  0
 15 33  1  0  0  0  0
 16 34  1  0  0  0  0
 16 35  1  0  0  0  0
 16 36  1  0  0  0  0
 18 37  1  0  0  0  0
 18 38  1  0  0  0  0
 19 39  1  0  0  0  0
 19 40  1  0  0  0  0
 19 41  1  0  0  0  0
M  END
