  17
 
 C          2.1823914062       -0.9927107157        0.4493564677
 C          1.1654894678        0.1176244906        0.2346027838
 C          1.6290136670        1.1393941485       -0.7967255802
 O         -0.0505769437       -0.5111536937       -0.2330420858
 C         -1.2169648631        0.0369604066        0.0695444523
 O         -1.3372392812        1.0529173451        0.7249637606
 C         -2.3598121883       -0.7675593366       -0.4773353451
 H          1.8069711050       -1.7132229695        1.1705786579
 H          2.3704365741       -1.5034451513       -0.4906592622
 H          3.1097336208       -0.5688091163        0.8200611106
 H          0.9312866252        0.6250463021        1.1795252472
 H          0.8702396163        1.9083835493       -0.9262821016
 H          1.8035947124        0.6491095047       -1.7510637321
 H          2.5480492285        1.6076827708       -0.4594196888
 H         -2.6392985674       -1.5130091796        0.2639789231
 H         -2.0525143368       -1.2747226604       -1.3857868421
 H         -3.2106180915       -0.1177549203       -0.6554846069
          17
        -23.96414424
 C          2.1833036165       -1.0300284044        0.4241334864
 C          1.1669095808        0.0866067784        0.2400524412
 C          1.6177426053        1.1200151538       -0.7857299901
 O         -0.0588668944       -0.5333042231       -0.2128899721
 C         -1.2168115307        0.0320364665        0.0903353795
 O         -1.3201139752        1.0473629497        0.7506118308
 C         -2.3720981773       -0.7334005817       -0.4844447591
 H          2.3566373177       -1.5274821352       -0.5257813153
 H          3.1169610695       -0.6142428231        0.7881377743
 H          1.8151649173       -1.7595958685        1.1399622300
 H          0.9506083772        0.5830655092        1.1950313861
 H          1.7663017164        0.6429279922       -1.7509894123
 H          2.5486413836        1.5736438097       -0.4613586141
 H          0.8641443740        1.8983144246       -0.8860829815
 H         -2.0503139974       -1.7278346537       -0.7737055282
 H         -2.7356992711       -0.1996427272       -1.3598355440
 H         -3.1764047280       -0.7757034480        0.2437959177
