 xtb: 6.7.1 (edcfbbe)
          04092505213D

 41 40  0     0  0            999 V2000
    4.9368    1.6986   -0.6688 C   0  0  0  0  0  0  0  0  0  0  0  0
    4.6131    0.2347   -0.8978 C   0  0  0  0  0  0  0  0  0  0  0  0
    3.7451   -0.2714    0.1363 O   0  0  0  0  0  0  0  0  0  0  0  0
    2.1634   -0.2880    0.0065 P   0  0  0  0  0  0  0  0  0  0  0  0
    1.2866    1.4368   -0.3510 S   0  0  0  0  0  0  0  0  0  0  0  0
    1.7553   -1.0204    1.3444 O   0  0  0  0  0  0  0  0  0  0  0  0
    1.3598   -0.3174    2.5393 C   0  0  0  0  0  0  0  0  0  0  0  0
    2.5022    0.4955    3.1094 C   0  0  0  0  0  0  0  0  0  0  0  0
    1.8330   -1.8064   -1.4195 S   0  0  0  0  0  0  0  0  0  0  0  0
    0.0934   -1.4617   -1.7730 C   0  0  0  0  0  0  0  0  0  0  0  0
   -0.9842   -1.7097   -0.3219 S   0  0  0  0  0  0  0  0  0  0  0  0
   -2.0841    0.1015   -0.3736 P   0  0  0  0  0  0  0  0  0  0  0  0
   -2.0126    1.1817   -1.9959 S   0  0  0  0  0  0  0  0  0  0  0  0
   -1.5914    0.7812    0.9915 O   0  0  0  0  0  0  0  0  0  0  0  0
   -1.7234    2.2011    1.2015 C   0  0  0  0  0  0  0  0  0  0  0  0
   -3.1733    2.6163    1.3382 C   0  0  0  0  0  0  0  0  0  0  0  0
   -3.5705   -0.3844   -0.1000 O   0  0  0  0  0  0  0  0  0  0  0  0
   -3.9182   -1.1957    1.0484 C   0  0  0  0  0  0  0  0  0  0  0  0
   -5.4250   -1.1571    1.1986 C   0  0  0  0  0  0  0  0  0  0  0  0
    4.0317    2.2992   -0.7297 H   0  0  0  0  0  0  0  0  0  0  0  0
    5.3828    1.8340    0.3126 H   0  0  0  0  0  0  0  0  0  0  0  0
    5.6342    2.0337   -1.4297 H   0  0  0  0  0  0  0  0  0  0  0  0
    5.5082   -0.3862   -0.8285 H   0  0  0  0  0  0  0  0  0  0  0  0
    4.1409    0.0835   -1.8727 H   0  0  0  0  0  0  0  0  0  0  0  0
    0.5054    0.3221    2.2973 H   0  0  0  0  0  0  0  0  0  0  0  0
    1.0449   -1.1142    3.2144 H   0  0  0  0  0  0  0  0  0  0  0  0
    2.7781    1.2812    2.4064 H   0  0  0  0  0  0  0  0  0  0  0  0
    2.1948    0.9486    4.0467 H   0  0  0  0  0  0  0  0  0  0  0  0
    3.3660   -0.1420    3.2788 H   0  0  0  0  0  0  0  0  0  0  0  0
   -0.2000   -2.1694   -2.5443 H   0  0  0  0  0  0  0  0  0  0  0  0
   -0.0253   -0.4315   -2.1214 H   0  0  0  0  0  0  0  0  0  0  0  0
   -1.1572    2.3895    2.1151 H   0  0  0  0  0  0  0  0  0  0  0  0
   -1.2429    2.7193    0.3653 H   0  0  0  0  0  0  0  0  0  0  0  0
   -3.6453    2.0839    2.1602 H   0  0  0  0  0  0  0  0  0  0  0  0
   -3.2226    3.6844    1.5253 H   0  0  0  0  0  0  0  0  0  0  0  0
   -3.7078    2.3943    0.4145 H   0  0  0  0  0  0  0  0  0  0  0  0
   -3.5583   -2.2113    0.8633 H   0  0  0  0  0  0  0  0  0  0  0  0
   -3.4128   -0.7932    1.9304 H   0  0  0  0  0  0  0  0  0  0  0  0
   -5.8959   -1.5301    0.2938 H   0  0  0  0  0  0  0  0  0  0  0  0
   -5.7150   -1.7795    2.0389 H   0  0  0  0  0  0  0  0  0  0  0  0
   -5.7607   -0.1383    1.3708 H   0  0  0  0  0  0  0  0  0  0  0  0
  1  2  1  0  0  0  0
  2  3  1  0  0  0  0
  3  4  2  0  0  0  0
  4  5  2  0  0  0  0
  4  6  2  0  0  0  0
  6  7  1  0  0  0  0
  7  8  1  0  0  0  0
  4  9  1  0  0  0  0
  9 10  1  0  0  0  0
 10 11  1  0  0  0  0
 11 12  1  0  0  0  0
 12 13  2  0  0  0  0
 12 14  1  0  0  0  0
 14 15  1  0  0  0  0
 15 16  1  0  0  0  0
 12 17  2  0  0  0  0
 17 18  1  0  0  0  0
 18 19  1  0  0  0  0
  1 20  1  0  0  0  0
  1 21  1  0  0  0  0
  1 22  1  0  0  0  0
  2 23  1  0  0  0  0
  2 24  1  0  0  0  0
  7 25  1  0  0  0  0
  7 26  1  0  0  0  0
  8 27  1  0  0  0  0
  8 28  1  0  0  0  0
  8 29  1  0  0  0  0
 10 30  1  0  0  0  0
 10 31  1  0  0  0  0
 15 32  1  0  0  0  0
 15 33  1  0  0  0  0
 16 34  1  0  0  0  0
 16 35  1  0  0  0  0
 16 36  1  0  0  0  0
 18 37  1  0  0  0  0
 18 38  1  0  0  0  0
 19 39  1  0  0  0  0
 19 40  1  0  0  0  0
 19 41  1  0  0  0  0
M  END
