 xtb: 6.7.1 (edcfbbe)
          04092507313D

 38 37  0     0  0            999 V2000
    5.2545   -2.0247   -1.4856 C   0  0  0  0  0  0  0  0  0  0  0  0
    4.5461   -0.7172   -1.1683 C   0  0  0  0  0  0  0  0  0  0  0  0
    3.1162   -0.8704   -1.2467 O   0  0  0  0  0  0  0  0  0  0  0  0
    2.4765   -1.3193   -0.1825 C   0  0  0  0  0  0  0  0  0  0  0  0
    3.0055   -1.6135    0.8642 O   0  0  0  0  0  0  0  0  0  0  0  0
    0.9846   -1.4405   -0.4412 C   0  0  0  0  0  0  0  0  0  0  0  0
    0.4212   -0.1349   -1.0012 C   0  0  0  0  0  0  0  0  0  0  0  0
    0.9517    0.1283   -1.9211 H   0  0  0  0  0  0  0  0  0  0  0  0
    0.5541    1.0096   -0.0159 C   0  0  0  0  0  0  0  0  0  0  0  0
   -0.3921    1.6839    0.3382 O   0  0  0  0  0  0  0  0  0  0  0  0
    1.7857    1.1655    0.3899 O   0  0  0  0  0  0  0  0  0  0  0  0
    2.0598    2.1985    1.3623 C   0  0  0  0  0  0  0  0  0  0  0  0
    2.2726    3.5413    0.6842 C   0  0  0  0  0  0  0  0  0  0  0  0
   -1.3274   -0.2819   -1.4814 S   0  0  0  0  0  0  0  0  0  0  0  0
   -2.3519    0.0043    0.3637 P   0  0  0  0  0  0  0  0  0  0  0  0
   -1.5079   -0.5434    2.0478 S   0  0  0  0  0  0  0  0  0  0  0  0
   -3.0450    1.4226    0.4093 O   0  0  0  0  0  0  0  0  0  0  0  0
   -3.8081    1.9495   -0.6934 C   0  0  0  0  0  0  0  0  0  0  0  0
   -3.6568   -0.8847    0.0450 O   0  0  0  0  0  0  0  0  0  0  0  0
   -3.5984   -2.3116   -0.0083 C   0  0  0  0  0  0  0  0  0  0  0  0
    4.9480   -2.3899   -2.4618 H   0  0  0  0  0  0  0  0  0  0  0  0
    6.3271   -1.8610   -1.4849 H   0  0  0  0  0  0  0  0  0  0  0  0
    5.0117   -2.7724   -0.7341 H   0  0  0  0  0  0  0  0  0  0  0  0
    4.7784    0.0497   -1.9072 H   0  0  0  0  0  0  0  0  0  0  0  0
    4.8037   -0.3717   -0.1635 H   0  0  0  0  0  0  0  0  0  0  0  0
    0.4944   -1.7090    0.4972 H   0  0  0  0  0  0  0  0  0  0  0  0
    0.8245   -2.2336   -1.1736 H   0  0  0  0  0  0  0  0  0  0  0  0
    1.2232    2.2391    2.0657 H   0  0  0  0  0  0  0  0  0  0  0  0
    2.9603    1.8526    1.8701 H   0  0  0  0  0  0  0  0  0  0  0  0
    1.3565    3.8627    0.1938 H   0  0  0  0  0  0  0  0  0  0  0  0
    2.5458    4.2762    1.4341 H   0  0  0  0  0  0  0  0  0  0  0  0
    3.0670    3.4683   -0.0531 H   0  0  0  0  0  0  0  0  0  0  0  0
   -3.1766    2.0281   -1.5782 H   0  0  0  0  0  0  0  0  0  0  0  0
   -4.1321    2.9335   -0.3647 H   0  0  0  0  0  0  0  0  0  0  0  0
   -4.6617    1.3051   -0.8964 H   0  0  0  0  0  0  0  0  0  0  0  0
   -4.6312   -2.6496    0.0194 H   0  0  0  0  0  0  0  0  0  0  0  0
   -3.0499   -2.6965    0.8534 H   0  0  0  0  0  0  0  0  0  0  0  0
   -3.1147   -2.6282   -0.9322 H   0  0  0  0  0  0  0  0  0  0  0  0
  1  2  1  0  0  0  0
  2  3  1  0  0  0  0
  3  4  1  0  0  0  0
  4  5  2  0  0  0  0
  4  6  1  0  0  0  0
  6  7  1  0  0  0  0
  7  8  1  0  0  0  0
  7  9  1  0  0  0  0
  9 10  2  0  0  0  0
  9 11  4  0  0  0  0
 11 12  1  0  0  0  0
 12 13  1  0  0  0  0
  7 14  1  0  0  0  0
 14 15  1  0  0  0  0
 15 16  2  0  0  0  0
 15 17  2  0  0  0  0
 17 18  1  0  0  0  0
 15 19  1  0  0  0  0
 19 20  1  0  0  0  0
  1 21  1  0  0  0  0
  1 22  1  0  0  0  0
  1 23  1  0  0  0  0
  2 24  1  0  0  0  0
  2 25  1  0  0  0  0
  6 26  1  0  0  0  0
  6 27  1  0  0  0  0
 12 28  1  0  0  0  0
 12 29  1  0  0  0  0
 13 30  1  0  0  0  0
 13 31  1  0  0  0  0
 13 32  1  0  0  0  0
 18 33  1  0  0  0  0
 18 34  1  0  0  0  0
 18 35  1  0  0  0  0
 20 36  1  0  0  0  0
 20 37  1  0  0  0  0
 20 38  1  0  0  0  0
M  END
