 xtb: 6.7.1 (edcfbbe)
          04092507313D

 38 37  0     0  0            999 V2000
    5.3631   -1.6979   -0.3453 C   0  0  0  0  0  0  0  0  0  0  0  0
    4.1795   -2.3185    0.3797 C   0  0  0  0  0  0  0  0  0  0  0  0
    2.9719   -2.1815   -0.3973 O   0  0  0  0  0  0  0  0  0  0  0  0
    2.2683   -1.0797   -0.2785 C   0  0  0  0  0  0  0  0  0  0  0  0
    2.5572   -0.1480    0.4474 O   0  0  0  0  0  0  0  0  0  0  0  0
    1.0178   -1.1209   -1.1233 C   0  0  0  0  0  0  0  0  0  0  0  0
    0.4345    0.2773   -1.3117 C   0  0  0  0  0  0  0  0  0  0  0  0
    0.8599    0.7793   -2.1819 H   0  0  0  0  0  0  0  0  0  0  0  0
    0.6211    1.1646   -0.0931 C   0  0  0  0  0  0  0  0  0  0  0  0
   -0.0259    1.0028    0.9273 O   0  0  0  0  0  0  0  0  0  0  0  0
    1.4006    2.1815   -0.3352 O   0  0  0  0  0  0  0  0  0  0  0  0
    1.6723    3.1049    0.7397 C   0  0  0  0  0  0  0  0  0  0  0  0
    2.1900    4.3943    0.1336 C   0  0  0  0  0  0  0  0  0  0  0  0
   -1.3631    0.2202   -1.5887 S   0  0  0  0  0  0  0  0  0  0  0  0
   -2.1378   -0.2955    0.3381 P   0  0  0  0  0  0  0  0  0  0  0  0
   -1.3148   -1.7059    1.4279 S   0  0  0  0  0  0  0  0  0  0  0  0
   -2.5929    1.0163    1.1015 O   0  0  0  0  0  0  0  0  0  0  0  0
   -3.5233    1.9521    0.5232 C   0  0  0  0  0  0  0  0  0  0  0  0
   -3.5905   -0.7692   -0.1755 O   0  0  0  0  0  0  0  0  0  0  0  0
   -3.7834   -2.0162   -0.8466 C   0  0  0  0  0  0  0  0  0  0  0  0
    5.4710   -2.1411   -1.3312 H   0  0  0  0  0  0  0  0  0  0  0  0
    5.2168   -0.6253   -0.4506 H   0  0  0  0  0  0  0  0  0  0  0  0
    6.2664   -1.8755    0.2287 H   0  0  0  0  0  0  0  0  0  0  0  0
    4.0239   -1.8441    1.3528 H   0  0  0  0  0  0  0  0  0  0  0  0
    4.3027   -3.3949    0.4982 H   0  0  0  0  0  0  0  0  0  0  0  0
    0.3161   -1.7548   -0.5665 H   0  0  0  0  0  0  0  0  0  0  0  0
    1.2176   -1.6011   -2.0797 H   0  0  0  0  0  0  0  0  0  0  0  0
    0.7498    3.2528    1.3100 H   0  0  0  0  0  0  0  0  0  0  0  0
    2.4128    2.6307    1.3908 H   0  0  0  0  0  0  0  0  0  0  0  0
    2.4240    5.0925    0.9303 H   0  0  0  0  0  0  0  0  0  0  0  0
    3.0867    4.1959   -0.4451 H   0  0  0  0  0  0  0  0  0  0  0  0
    1.4392    4.8317   -0.5178 H   0  0  0  0  0  0  0  0  0  0  0  0
   -3.4728    2.8312    1.1608 H   0  0  0  0  0  0  0  0  0  0  0  0
   -4.5241    1.5242    0.5282 H   0  0  0  0  0  0  0  0  0  0  0  0
   -3.2292    2.1963   -0.4982 H   0  0  0  0  0  0  0  0  0  0  0  0
   -3.4221   -1.9444   -1.8721 H   0  0  0  0  0  0  0  0  0  0  0  0
   -4.8552   -2.1965   -0.8289 H   0  0  0  0  0  0  0  0  0  0  0  0
   -3.2547   -2.8107   -0.3168 H   0  0  0  0  0  0  0  0  0  0  0  0
  1  2  1  0  0  0  0
  2  3  1  0  0  0  0
  3  4  4  0  0  0  0
  4  5  2  0  0  0  0
  4  6  1  0  0  0  0
  6  7  1  0  0  0  0
  7  8  1  0  0  0  0
  7  9  1  0  0  0  0
  9 10  2  0  0  0  0
  9 11  4  0  0  0  0
 11 12  1  0  0  0  0
 12 13  1  0  0  0  0
  7 14  1  0  0  0  0
 14 15  1  0  0  0  0
 15 16  2  0  0  0  0
 15 17  2  0  0  0  0
 17 18  1  0  0  0  0
 15 19  1  0  0  0  0
 19 20  1  0  0  0  0
  1 21  1  0  0  0  0
  1 22  1  0  0  0  0
  1 23  1  0  0  0  0
  2 24  1  0  0  0  0
  2 25  1  0  0  0  0
  6 26  1  0  0  0  0
  6 27  1  0  0  0  0
 12 28  1  0  0  0  0
 12 29  1  0  0  0  0
 13 30  1  0  0  0  0
 13 31  1  0  0  0  0
 13 32  1  0  0  0  0
 18 33  1  0  0  0  0
 18 34  1  0  0  0  0
 18 35  1  0  0  0  0
 20 36  1  0  0  0  0
 20 37  1  0  0  0  0
 20 38  1  0  0  0  0
M  END
