 xtb: 6.7.1 (edcfbbe)
          04092507313D

 38 37  0     0  0            999 V2000
    2.9935   -3.8901    0.2507 C   0  0  0  0  0  0  0  0  0  0  0  0
    2.7557   -2.4375    0.6095 C   0  0  0  0  0  0  0  0  0  0  0  0
    2.3926   -1.7369   -0.5966 O   0  0  0  0  0  0  0  0  0  0  0  0
    2.0954   -0.4636   -0.5107 C   0  0  0  0  0  0  0  0  0  0  0  0
    2.1020    0.1824    0.5199 O   0  0  0  0  0  0  0  0  0  0  0  0
    1.7532    0.1480   -1.8553 C   0  0  0  0  0  0  0  0  0  0  0  0
    0.4492    0.9454   -1.7546 C   0  0  0  0  0  0  0  0  0  0  0  0
    0.3679    1.6346   -2.5978 H   0  0  0  0  0  0  0  0  0  0  0  0
    0.3859    1.7289   -0.4600 C   0  0  0  0  0  0  0  0  0  0  0  0
   -0.4638    1.5042    0.3909 O   0  0  0  0  0  0  0  0  0  0  0  0
    1.2585    2.6826   -0.3998 O   0  0  0  0  0  0  0  0  0  0  0  0
    1.3539    3.4433    0.8262 C   0  0  0  0  0  0  0  0  0  0  0  0
    2.4075    4.5129    0.6253 C   0  0  0  0  0  0  0  0  0  0  0  0
   -1.0300   -0.1241   -1.8517 S   0  0  0  0  0  0  0  0  0  0  0  0
   -1.6567   -0.5033    0.1339 P   0  0  0  0  0  0  0  0  0  0  0  0
   -0.6010   -1.1816    1.6535 S   0  0  0  0  0  0  0  0  0  0  0  0
   -2.8906    0.4366    0.5424 O   0  0  0  0  0  0  0  0  0  0  0  0
   -2.9084    1.3745    1.6160 C   0  0  0  0  0  0  0  0  0  0  0  0
   -2.5189   -1.7160   -0.5007 O   0  0  0  0  0  0  0  0  0  0  0  0
   -3.3345   -2.5662    0.3037 C   0  0  0  0  0  0  0  0  0  0  0  0
    2.0857   -4.3224   -0.1595 H   0  0  0  0  0  0  0  0  0  0  0  0
    3.7868   -3.9666   -0.4868 H   0  0  0  0  0  0  0  0  0  0  0  0
    3.2760   -4.4360    1.1444 H   0  0  0  0  0  0  0  0  0  0  0  0
    3.6521   -1.9643    1.0219 H   0  0  0  0  0  0  0  0  0  0  0  0
    1.9415   -2.3209    1.3332 H   0  0  0  0  0  0  0  0  0  0  0  0
    1.6620   -0.6328   -2.6080 H   0  0  0  0  0  0  0  0  0  0  0  0
    2.5640    0.8295   -2.1211 H   0  0  0  0  0  0  0  0  0  0  0  0
    0.3707    3.8699    1.0453 H   0  0  0  0  0  0  0  0  0  0  0  0
    1.6203    2.7440    1.6246 H   0  0  0  0  0  0  0  0  0  0  0  0
    3.3657    4.0530    0.4051 H   0  0  0  0  0  0  0  0  0  0  0  0
    2.1284    5.1626   -0.1985 H   0  0  0  0  0  0  0  0  0  0  0  0
    2.4942    5.1008    1.5328 H   0  0  0  0  0  0  0  0  0  0  0  0
   -2.1511    1.1142    2.3574 H   0  0  0  0  0  0  0  0  0  0  0  0
   -3.9039    1.3154    2.0514 H   0  0  0  0  0  0  0  0  0  0  0  0
   -2.7154    2.3726    1.2278 H   0  0  0  0  0  0  0  0  0  0  0  0
   -3.5488   -3.4377   -0.3100 H   0  0  0  0  0  0  0  0  0  0  0  0
   -4.2559   -2.0518    0.5758 H   0  0  0  0  0  0  0  0  0  0  0  0
   -2.7933   -2.8591    1.2067 H   0  0  0  0  0  0  0  0  0  0  0  0
  1  2  1  0  0  0  0
  2  3  1  0  0  0  0
  3  4  4  0  0  0  0
  4  5  2  0  0  0  0
  4  6  1  0  0  0  0
  6  7  1  0  0  0  0
  7  8  1  0  0  0  0
  7  9  1  0  0  0  0
  9 10  2  0  0  0  0
  9 11  4  0  0  0  0
 11 12  1  0  0  0  0
 12 13  1  0  0  0  0
  7 14  1  0  0  0  0
 14 15  1  0  0  0  0
 15 16  2  0  0  0  0
 15 17  1  0  0  0  0
 17 18  1  0  0  0  0
 15 19  1  0  0  0  0
 19 20  1  0  0  0  0
  1 21  1  0  0  0  0
  1 22  1  0  0  0  0
  1 23  1  0  0  0  0
  2 24  1  0  0  0  0
  2 25  1  0  0  0  0
  6 26  1  0  0  0  0
  6 27  1  0  0  0  0
 12 28  1  0  0  0  0
 12 29  1  0  0  0  0
 13 30  1  0  0  0  0
 13 31  1  0  0  0  0
 13 32  1  0  0  0  0
 18 33  1  0  0  0  0
 18 34  1  0  0  0  0
 18 35  1  0  0  0  0
 20 36  1  0  0  0  0
 20 37  1  0  0  0  0
 20 38  1  0  0  0  0
M  END
