 xtb: 6.7.1 (edcfbbe)
          04092505213D

 41 40  0     0  0            999 V2000
    1.6186   -1.1125   -2.8490 C   0  0  0  0  0  0  0  0  0  0  0  0
    2.5794   -0.1741   -2.1466 C   0  0  0  0  0  0  0  0  0  0  0  0
    1.8949    0.5356   -1.0829 O   0  0  0  0  0  0  0  0  0  0  0  0
    2.1176    0.2598    0.4498 P   0  0  0  0  0  0  0  0  0  0  0  0
    0.9673    1.4292    1.5168 S   0  0  0  0  0  0  0  0  0  0  0  0
    3.6893    0.4552    0.5700 O   0  0  0  0  0  0  0  0  0  0  0  0
    4.5139   -0.0228    1.6509 C   0  0  0  0  0  0  0  0  0  0  0  0
    4.0343    0.4463    3.0081 C   0  0  0  0  0  0  0  0  0  0  0  0
    1.8705   -1.8219    0.8092 S   0  0  0  0  0  0  0  0  0  0  0  0
    0.1129   -1.8053    1.2221 C   0  0  0  0  0  0  0  0  0  0  0  0
   -0.9889   -1.9322   -0.2268 S   0  0  0  0  0  0  0  0  0  0  0  0
   -1.9408   -0.0418   -0.3642 P   0  0  0  0  0  0  0  0  0  0  0  0
   -1.1597    1.3832   -1.4686 S   0  0  0  0  0  0  0  0  0  0  0  0
   -2.1989    0.2486    1.1667 O   0  0  0  0  0  0  0  0  0  0  0  0
   -2.5349    1.5645    1.6505 C   0  0  0  0  0  0  0  0  0  0  0  0
   -3.8985    2.0057    1.1665 C   0  0  0  0  0  0  0  0  0  0  0  0
   -3.3817   -0.5006   -0.8636 O   0  0  0  0  0  0  0  0  0  0  0  0
   -3.7008   -0.6861   -2.2561 C   0  0  0  0  0  0  0  0  0  0  0  0
   -4.5201    0.4827   -2.7689 C   0  0  0  0  0  0  0  0  0  0  0  0
    2.1071   -1.5350   -3.7209 H   0  0  0  0  0  0  0  0  0  0  0  0
    1.3081   -1.9195   -2.1884 H   0  0  0  0  0  0  0  0  0  0  0  0
    0.7357   -0.5607   -3.1647 H   0  0  0  0  0  0  0  0  0  0  0  0
    2.9287    0.6104   -2.8196 H   0  0  0  0  0  0  0  0  0  0  0  0
    3.4337   -0.7112   -1.7285 H   0  0  0  0  0  0  0  0  0  0  0  0
    4.5360   -1.1148    1.6041 H   0  0  0  0  0  0  0  0  0  0  0  0
    5.5000    0.3806    1.4144 H   0  0  0  0  0  0  0  0  0  0  0  0
    4.7406    0.1290    3.7684 H   0  0  0  0  0  0  0  0  0  0  0  0
    3.9472    1.5302    3.0262 H   0  0  0  0  0  0  0  0  0  0  0  0
    3.0569    0.0206    3.2303 H   0  0  0  0  0  0  0  0  0  0  0  0
   -0.1175   -0.8896    1.7695 H   0  0  0  0  0  0  0  0  0  0  0  0
   -0.0697   -2.6901    1.8255 H   0  0  0  0  0  0  0  0  0  0  0  0
   -2.4964    1.4590    2.7355 H   0  0  0  0  0  0  0  0  0  0  0  0
   -1.7549    2.2625    1.3285 H   0  0  0  0  0  0  0  0  0  0  0  0
   -4.6457    1.2593    1.4229 H   0  0  0  0  0  0  0  0  0  0  0  0
   -4.1541    2.9532    1.6304 H   0  0  0  0  0  0  0  0  0  0  0  0
   -3.8812    2.1330    0.0850 H   0  0  0  0  0  0  0  0  0  0  0  0
   -2.7761   -0.7905   -2.8303 H   0  0  0  0  0  0  0  0  0  0  0  0
   -4.2644   -1.6198   -2.2972 H   0  0  0  0  0  0  0  0  0  0  0  0
   -5.4060    0.6161   -2.1545 H   0  0  0  0  0  0  0  0  0  0  0  0
   -3.9257    1.3936   -2.7390 H   0  0  0  0  0  0  0  0  0  0  0  0
   -4.8177    0.2884   -3.7941 H   0  0  0  0  0  0  0  0  0  0  0  0
  1  2  1  0  0  0  0
  2  3  1  0  0  0  0
  3  4  2  0  0  0  0
  4  5  2  0  0  0  0
  4  6  2  0  0  0  0
  6  7  1  0  0  0  0
  7  8  1  0  0  0  0
  4  9  1  0  0  0  0
  9 10  1  0  0  0  0
 10 11  1  0  0  0  0
 11 12  1  0  0  0  0
 12 13  2  0  0  0  0
 12 14  2  0  0  0  0
 14 15  1  0  0  0  0
 15 16  1  0  0  0  0
 12 17  2  0  0  0  0
 17 18  1  0  0  0  0
 18 19  1  0  0  0  0
  1 20  1  0  0  0  0
  1 21  1  0  0  0  0
  1 22  1  0  0  0  0
  2 23  1  0  0  0  0
  2 24  1  0  0  0  0
  7 25  1  0  0  0  0
  7 26  1  0  0  0  0
  8 27  1  0  0  0  0
  8 28  1  0  0  0  0
  8 29  1  0  0  0  0
 10 30  1  0  0  0  0
 10 31  1  0  0  0  0
 15 32  1  0  0  0  0
 15 33  1  0  0  0  0
 16 34  1  0  0  0  0
 16 35  1  0  0  0  0
 16 36  1  0  0  0  0
 18 37  1  0  0  0  0
 18 38  1  0  0  0  0
 19 39  1  0  0  0  0
 19 40  1  0  0  0  0
 19 41  1  0  0  0  0
M  END
