 xtb: 6.7.1 (edcfbbe)
          04032520503D

 16 16  0     0  0            999 V2000
   -1.0479   -2.1832    0.0000 C   0  0  0  0  0  0  0  0  0  0  0  0
   -0.1918   -0.9576    0.0000 C   0  0  0  0  0  0  0  0  0  0  0  0
    1.1929   -1.0500    0.0000 C   0  0  0  0  0  0  0  0  0  0  0  0
    1.9966    0.0846    0.0000 C   0  0  0  0  0  0  0  0  0  0  0  0
    1.4046    1.3450   -0.0000 C   0  0  0  0  0  0  0  0  0  0  0  0
    0.0289    1.4568   -0.0001 C   0  0  0  0  0  0  0  0  0  0  0  0
   -0.7533    0.3152   -0.0000 C   0  0  0  0  0  0  0  0  0  0  0  0
   -2.4902    0.4920   -0.0001 Cl  0  0  0  0  0  0  0  0  0  0  0  0
    3.3500    0.0150    0.0000 O   0  0  0  0  0  0  0  0  0  0  0  0
   -0.4383   -3.0812    0.0006 H   0  0  0  0  0  0  0  0  0  0  0  0
   -1.6923   -2.1896    0.8776 H   0  0  0  0  0  0  0  0  0  0  0  0
   -1.6915   -2.1901   -0.8782 H   0  0  0  0  0  0  0  0  0  0  0  0
    1.6481   -2.0296    0.0001 H   0  0  0  0  0  0  0  0  0  0  0  0
    2.0336    2.2197   -0.0000 H   0  0  0  0  0  0  0  0  0  0  0  0
   -0.4376    2.4287   -0.0001 H   0  0  0  0  0  0  0  0  0  0  0  0
    3.6487   -0.9075    0.0001 H   0  0  0  0  0  0  0  0  0  0  0  0
  1  2  1  0  0  0  0
  2  3  4  0  0  0  0
  3  4  4  0  0  0  0
  4  5  4  0  0  0  0
  5  6  4  0  0  0  0
  2  7  4  0  0  0  0
  6  7  4  0  0  0  0
  7  8  1  0  0  0  0
  4  9  1  0  0  0  0
  1 10  1  0  0  0  0
  1 11  1  0  0  0  0
  1 12  1  0  0  0  0
  3 13  1  0  0  0  0
  5 14  1  0  0  0  0
  6 15  1  0  0  0  0
  9 16  1  0  0  0  0
M  END
