 xtb: 6.7.1 (edcfbbe)
          04092505213D

 41 40  0     0  0            999 V2000
    3.3757   -1.8393   -2.5626 C   0  0  0  0  0  0  0  0  0  0  0  0
    4.0934   -0.5724   -2.1436 C   0  0  0  0  0  0  0  0  0  0  0  0
    3.7297   -0.1393   -0.8215 O   0  0  0  0  0  0  0  0  0  0  0  0
    2.2514    0.3143   -0.4152 P   0  0  0  0  0  0  0  0  0  0  0  0
    1.3372    1.3668   -1.7834 S   0  0  0  0  0  0  0  0  0  0  0  0
    2.5604    1.1245    0.8967 O   0  0  0  0  0  0  0  0  0  0  0  0
    3.2055    0.5438    2.0570 C   0  0  0  0  0  0  0  0  0  0  0  0
    2.8787    1.4177    3.2490 C   0  0  0  0  0  0  0  0  0  0  0  0
    1.3163   -1.5010    0.2026 S   0  0  0  0  0  0  0  0  0  0  0  0
   -0.1284   -1.5015   -0.9117 C   0  0  0  0  0  0  0  0  0  0  0  0
   -1.7211   -1.7308   -0.0800 S   0  0  0  0  0  0  0  0  0  0  0  0
   -2.1183    0.1923    0.7440 P   0  0  0  0  0  0  0  0  0  0  0  0
   -0.5497    1.1789    1.3838 S   0  0  0  0  0  0  0  0  0  0  0  0
   -3.1333   -0.0830    1.9096 O   0  0  0  0  0  0  0  0  0  0  0  0
   -4.5493   -0.3630    1.7584 C   0  0  0  0  0  0  0  0  0  0  0  0
   -4.8141   -1.6268    0.9697 C   0  0  0  0  0  0  0  0  0  0  0  0
   -3.0279    0.9870   -0.2985 O   0  0  0  0  0  0  0  0  0  0  0  0
   -2.5194    1.6086   -1.4906 C   0  0  0  0  0  0  0  0  0  0  0  0
   -2.7767    0.7372   -2.7051 C   0  0  0  0  0  0  0  0  0  0  0  0
    3.4924   -2.6101   -1.8049 H   0  0  0  0  0  0  0  0  0  0  0  0
    2.3158   -1.6332   -2.7032 H   0  0  0  0  0  0  0  0  0  0  0  0
    3.7924   -2.1896   -3.5015 H   0  0  0  0  0  0  0  0  0  0  0  0
    3.8748    0.2412   -2.8422 H   0  0  0  0  0  0  0  0  0  0  0  0
    5.1719   -0.7231   -2.0758 H   0  0  0  0  0  0  0  0  0  0  0  0
    2.8262   -0.4733    2.1958 H   0  0  0  0  0  0  0  0  0  0  0  0
    4.2786    0.5075    1.8576 H   0  0  0  0  0  0  0  0  0  0  0  0
    3.2560    2.4235    3.0891 H   0  0  0  0  0  0  0  0  0  0  0  0
    1.7999    1.4702    3.3785 H   0  0  0  0  0  0  0  0  0  0  0  0
    3.3312    0.9948    4.1398 H   0  0  0  0  0  0  0  0  0  0  0  0
   -0.0384   -2.3635   -1.5684 H   0  0  0  0  0  0  0  0  0  0  0  0
   -0.1168   -0.5650   -1.4762 H   0  0  0  0  0  0  0  0  0  0  0  0
   -4.8908   -0.4529    2.7907 H   0  0  0  0  0  0  0  0  0  0  0  0
   -5.0167    0.5019    1.2848 H   0  0  0  0  0  0  0  0  0  0  0  0
   -4.2684   -2.4637    1.3983 H   0  0  0  0  0  0  0  0  0  0  0  0
   -5.8778   -1.8424    0.9957 H   0  0  0  0  0  0  0  0  0  0  0  0
   -4.5039   -1.5009   -0.0652 H   0  0  0  0  0  0  0  0  0  0  0  0
   -3.0590    2.5548   -1.5659 H   0  0  0  0  0  0  0  0  0  0  0  0
   -1.4523    1.8231   -1.3673 H   0  0  0  0  0  0  0  0  0  0  0  0
   -3.8434    0.5704   -2.8243 H   0  0  0  0  0  0  0  0  0  0  0  0
   -2.3882    1.2407   -3.5846 H   0  0  0  0  0  0  0  0  0  0  0  0
   -2.2800   -0.2246   -2.6041 H   0  0  0  0  0  0  0  0  0  0  0  0
  1  2  1  0  0  0  0
  2  3  1  0  0  0  0
  3  4  2  0  0  0  0
  4  5  2  0  0  0  0
  4  6  2  0  0  0  0
  6  7  1  0  0  0  0
  7  8  1  0  0  0  0
  4  9  1  0  0  0  0
  9 10  1  0  0  0  0
 10 11  1  0  0  0  0
 11 12  1  0  0  0  0
 12 13  2  0  0  0  0
 12 14  2  0  0  0  0
 14 15  1  0  0  0  0
 15 16  1  0  0  0  0
 12 17  2  0  0  0  0
 17 18  1  0  0  0  0
 18 19  1  0  0  0  0
  1 20  1  0  0  0  0
  1 21  1  0  0  0  0
  1 22  1  0  0  0  0
  2 23  1  0  0  0  0
  2 24  1  0  0  0  0
  7 25  1  0  0  0  0
  7 26  1  0  0  0  0
  8 27  1  0  0  0  0
  8 28  1  0  0  0  0
  8 29  1  0  0  0  0
 10 30  1  0  0  0  0
 10 31  1  0  0  0  0
 15 32  1  0  0  0  0
 15 33  1  0  0  0  0
 16 34  1  0  0  0  0
 16 35  1  0  0  0  0
 16 36  1  0  0  0  0
 18 37  1  0  0  0  0
 18 38  1  0  0  0  0
 19 39  1  0  0  0  0
 19 40  1  0  0  0  0
 19 41  1  0  0  0  0
M  END
