 xtb: 6.7.1 (edcfbbe)
          04092507313D

 38 37  0     0  0            999 V2000
    3.5560   -1.4761    1.8280 C   0  0  0  0  0  0  0  0  0  0  0  0
    2.8574   -2.2844    0.7469 C   0  0  0  0  0  0  0  0  0  0  0  0
    2.6649   -1.4948   -0.4458 O   0  0  0  0  0  0  0  0  0  0  0  0
    1.6515   -0.6754   -0.5066 C   0  0  0  0  0  0  0  0  0  0  0  0
    0.8400   -0.5011    0.3931 O   0  0  0  0  0  0  0  0  0  0  0  0
    1.5532    0.0716   -1.8115 C   0  0  0  0  0  0  0  0  0  0  0  0
    0.3705    1.0230   -1.7235 C   0  0  0  0  0  0  0  0  0  0  0  0
    0.3114    1.6592   -2.6107 H   0  0  0  0  0  0  0  0  0  0  0  0
    0.4270    1.9142   -0.4909 C   0  0  0  0  0  0  0  0  0  0  0  0
   -0.5491    2.2988    0.1084 O   0  0  0  0  0  0  0  0  0  0  0  0
    1.6712    2.2381   -0.1969 O   0  0  0  0  0  0  0  0  0  0  0  0
    1.8976    3.1456    0.9005 C   0  0  0  0  0  0  0  0  0  0  0  0
    1.7980    4.5902    0.4389 C   0  0  0  0  0  0  0  0  0  0  0  0
   -1.2400    0.1546   -1.7536 S   0  0  0  0  0  0  0  0  0  0  0  0
   -1.6141   -0.9241    0.0397 P   0  0  0  0  0  0  0  0  0  0  0  0
   -0.9516   -2.7417    0.3596 S   0  0  0  0  0  0  0  0  0  0  0  0
   -1.7001    0.0540    1.3026 O   0  0  0  0  0  0  0  0  0  0  0  0
   -0.9028   -0.0234    2.4775 C   0  0  0  0  0  0  0  0  0  0  0  0
   -3.1762   -1.1303   -0.2547 O   0  0  0  0  0  0  0  0  0  0  0  0
   -4.1158   -0.0524   -0.4100 C   0  0  0  0  0  0  0  0  0  0  0  0
    4.4992   -1.0876    1.4542 H   0  0  0  0  0  0  0  0  0  0  0  0
    2.9262   -0.6466    2.1422 H   0  0  0  0  0  0  0  0  0  0  0  0
    3.7443   -2.1155    2.6838 H   0  0  0  0  0  0  0  0  0  0  0  0
    1.8828   -2.6464    1.0870 H   0  0  0  0  0  0  0  0  0  0  0  0
    3.4705   -3.1211    0.4136 H   0  0  0  0  0  0  0  0  0  0  0  0
    1.4177   -0.6403   -2.6270 H   0  0  0  0  0  0  0  0  0  0  0  0
    2.4818    0.6193   -1.9785 H   0  0  0  0  0  0  0  0  0  0  0  0
    1.1646    2.9376    1.6854 H   0  0  0  0  0  0  0  0  0  0  0  0
    2.9031    2.9057    1.2470 H   0  0  0  0  0  0  0  0  0  0  0  0
    0.7868    4.8069    0.1021 H   0  0  0  0  0  0  0  0  0  0  0  0
    2.0410    5.2469    1.2676 H   0  0  0  0  0  0  0  0  0  0  0  0
    2.4915    4.7706   -0.3775 H   0  0  0  0  0  0  0  0  0  0  0  0
   -1.5595    0.2448    3.3024 H   0  0  0  0  0  0  0  0  0  0  0  0
   -0.0759    0.6808    2.3989 H   0  0  0  0  0  0  0  0  0  0  0  0
   -0.5149   -1.0352    2.6065 H   0  0  0  0  0  0  0  0  0  0  0  0
   -5.0609   -0.4293   -0.0261 H   0  0  0  0  0  0  0  0  0  0  0  0
   -4.2023    0.1941   -1.4672 H   0  0  0  0  0  0  0  0  0  0  0  0
   -3.7943    0.8204    0.1561 H   0  0  0  0  0  0  0  0  0  0  0  0
  1  2  1  0  0  0  0
  2  3  1  0  0  0  0
  3  4  4  0  0  0  0
  4  5  2  0  0  0  0
  4  6  1  0  0  0  0
  6  7  1  0  0  0  0
  7  8  1  0  0  0  0
  7  9  1  0  0  0  0
  9 10  2  0  0  0  0
  9 11  1  0  0  0  0
 11 12  1  0  0  0  0
 12 13  1  0  0  0  0
  7 14  1  0  0  0  0
 14 15  1  0  0  0  0
 15 16  2  0  0  0  0
 15 17  1  0  0  0  0
 17 18  1  0  0  0  0
 15 19  1  0  0  0  0
 19 20  1  0  0  0  0
  1 21  1  0  0  0  0
  1 22  1  0  0  0  0
  1 23  1  0  0  0  0
  2 24  1  0  0  0  0
  2 25  1  0  0  0  0
  6 26  1  0  0  0  0
  6 27  1  0  0  0  0
 12 28  1  0  0  0  0
 12 29  1  0  0  0  0
 13 30  1  0  0  0  0
 13 31  1  0  0  0  0
 13 32  1  0  0  0  0
 18 33  1  0  0  0  0
 18 34  1  0  0  0  0
 18 35  1  0  0  0  0
 20 36  1  0  0  0  0
 20 37  1  0  0  0  0
 20 38  1  0  0  0  0
M  END
