 xtb: 6.7.1 (edcfbbe)
          04092505213D

 41 40  0     0  0            999 V2000
    1.2911    0.6976    3.0042 C   0  0  0  0  0  0  0  0  0  0  0  0
    2.4111    0.9418    2.0134 C   0  0  0  0  0  0  0  0  0  0  0  0
    2.8889   -0.2852    1.4321 O   0  0  0  0  0  0  0  0  0  0  0  0
    2.1942   -1.0637    0.2311 P   0  0  0  0  0  0  0  0  0  0  0  0
    0.4809   -1.9446    0.5718 S   0  0  0  0  0  0  0  0  0  0  0  0
    3.2812   -2.1371   -0.1356 O   0  0  0  0  0  0  0  0  0  0  0  0
    4.6541   -1.8051   -0.4677 C   0  0  0  0  0  0  0  0  0  0  0  0
    5.5521   -1.9631    0.7420 C   0  0  0  0  0  0  0  0  0  0  0  0
    2.2566    0.3502   -1.3825 S   0  0  0  0  0  0  0  0  0  0  0  0
    0.4936    0.5207   -1.6914 C   0  0  0  0  0  0  0  0  0  0  0  0
   -0.3383    1.3838   -0.3171 S   0  0  0  0  0  0  0  0  0  0  0  0
   -2.3186    0.6668   -0.6630 P   0  0  0  0  0  0  0  0  0  0  0  0
   -2.4707   -0.9630   -1.7318 S   0  0  0  0  0  0  0  0  0  0  0  0
   -3.0592    1.8641   -1.3685 O   0  0  0  0  0  0  0  0  0  0  0  0
   -3.1120    3.2121   -0.8364 C   0  0  0  0  0  0  0  0  0  0  0  0
   -4.3681    3.4259   -0.0175 C   0  0  0  0  0  0  0  0  0  0  0  0
   -2.9566    0.6721    0.7914 O   0  0  0  0  0  0  0  0  0  0  0  0
   -2.7187   -0.3676    1.7613 C   0  0  0  0  0  0  0  0  0  0  0  0
   -3.8637   -1.3606    1.7586 C   0  0  0  0  0  0  0  0  0  0  0  0
    0.4214    0.2885    2.4951 H   0  0  0  0  0  0  0  0  0  0  0  0
    1.6099   -0.0079    3.7665 H   0  0  0  0  0  0  0  0  0  0  0  0
    1.0169    1.6378    3.4710 H   0  0  0  0  0  0  0  0  0  0  0  0
    3.2916    1.3590    2.5055 H   0  0  0  0  0  0  0  0  0  0  0  0
    2.0825    1.6138    1.2140 H   0  0  0  0  0  0  0  0  0  0  0  0
    4.9204   -2.5112   -1.2561 H   0  0  0  0  0  0  0  0  0  0  0  0
    4.6865   -0.7852   -0.8606 H   0  0  0  0  0  0  0  0  0  0  0  0
    6.5789   -1.7685    0.4485 H   0  0  0  0  0  0  0  0  0  0  0  0
    5.2615   -1.2656    1.5224 H   0  0  0  0  0  0  0  0  0  0  0  0
    5.4752   -2.9746    1.1312 H   0  0  0  0  0  0  0  0  0  0  0  0
    0.0308   -0.4632   -1.8050 H   0  0  0  0  0  0  0  0  0  0  0  0
    0.3983    1.1090   -2.6010 H   0  0  0  0  0  0  0  0  0  0  0  0
   -2.2127    3.3913   -0.2400 H   0  0  0  0  0  0  0  0  0  0  0  0
   -3.1025    3.8491   -1.7226 H   0  0  0  0  0  0  0  0  0  0  0  0
   -4.3600    2.7880    0.8618 H   0  0  0  0  0  0  0  0  0  0  0  0
   -4.4150    4.4651    0.2929 H   0  0  0  0  0  0  0  0  0  0  0  0
   -5.2450    3.1893   -0.6139 H   0  0  0  0  0  0  0  0  0  0  0  0
   -1.7750   -0.8735    1.5399 H   0  0  0  0  0  0  0  0  0  0  0  0
   -2.6422    0.1529    2.7178 H   0  0  0  0  0  0  0  0  0  0  0  0
   -4.8050   -0.8520    1.9466 H   0  0  0  0  0  0  0  0  0  0  0  0
   -3.9188   -1.8607    0.7937 H   0  0  0  0  0  0  0  0  0  0  0  0
   -3.6918   -2.1045    2.5296 H   0  0  0  0  0  0  0  0  0  0  0  0
  1  2  1  0  0  0  0
  2  3  1  0  0  0  0
  3  4  2  0  0  0  0
  4  5  2  0  0  0  0
  4  6  2  0  0  0  0
  6  7  1  0  0  0  0
  7  8  1  0  0  0  0
  4  9  1  0  0  0  0
  9 10  1  0  0  0  0
 10 11  1  0  0  0  0
 11 12  1  0  0  0  0
 12 13  2  0  0  0  0
 12 14  2  0  0  0  0
 14 15  1  0  0  0  0
 15 16  1  0  0  0  0
 12 17  2  0  0  0  0
 17 18  1  0  0  0  0
 18 19  1  0  0  0  0
  1 20  1  0  0  0  0
  1 21  1  0  0  0  0
  1 22  1  0  0  0  0
  2 23  1  0  0  0  0
  2 24  1  0  0  0  0
  7 25  1  0  0  0  0
  7 26  1  0  0  0  0
  8 27  1  0  0  0  0
  8 28  1  0  0  0  0
  8 29  1  0  0  0  0
 10 30  1  0  0  0  0
 10 31  1  0  0  0  0
 15 32  1  0  0  0  0
 15 33  1  0  0  0  0
 16 34  1  0  0  0  0
 16 35  1  0  0  0  0
 16 36  1  0  0  0  0
 18 37  1  0  0  0  0
 18 38  1  0  0  0  0
 19 39  1  0  0  0  0
 19 40  1  0  0  0  0
 19 41  1  0  0  0  0
M  END
