9
 xtb: 6.7.1 (edcfbbe)
C            1.27232616656970       -0.25037720991227        0.02250324379440
C           -0.00718271785294        0.56040036873293       -0.02296330742503
O           -1.18403205552813       -0.27211267651200        0.05280365913139
H            2.14160076292829        0.41482017392117       -0.02040119396430
H            1.33131607246640       -0.83625134016655        0.94528678878951
H            1.32791700261304       -0.93514293057048       -0.83103595488768
H           -0.04215263181266        1.17298998819908       -0.93462759069062
H           -0.06925761286781        1.23493297185044        0.83650662702286
H           -1.16013557338914       -0.86510678045812       -0.70954390250270
