 xtb: 6.7.1 (edcfbbe)
          04092505213D

 41 40  0     0  0            999 V2000
    1.6388   -1.7393    3.2350 C   0  0  0  0  0  0  0  0  0  0  0  0
    0.6427   -1.0259    2.3425 C   0  0  0  0  0  0  0  0  0  0  0  0
    1.3202   -0.1520    1.4263 O   0  0  0  0  0  0  0  0  0  0  0  0
    1.8632   -0.6270    0.0048 P   0  0  0  0  0  0  0  0  0  0  0  0
    1.3514   -2.4192   -0.5883 S   0  0  0  0  0  0  0  0  0  0  0  0
    3.4452   -0.5308    0.1266 O   0  0  0  0  0  0  0  0  0  0  0  0
    4.1583    0.4158    0.9535 C   0  0  0  0  0  0  0  0  0  0  0  0
    3.8578    1.8538    0.5881 C   0  0  0  0  0  0  0  0  0  0  0  0
    1.3933    0.9580   -1.3294 S   0  0  0  0  0  0  0  0  0  0  0  0
    0.2068    0.1368   -2.4239 C   0  0  0  0  0  0  0  0  0  0  0  0
   -1.4793    0.8279   -2.3835 S   0  0  0  0  0  0  0  0  0  0  0  0
   -2.0200    0.4602   -0.3640 P   0  0  0  0  0  0  0  0  0  0  0  0
   -3.8986    0.8602    0.0064 S   0  0  0  0  0  0  0  0  0  0  0  0
   -0.9650    1.2204    0.5374 O   0  0  0  0  0  0  0  0  0  0  0  0
   -1.0307    2.6468    0.7408 C   0  0  0  0  0  0  0  0  0  0  0  0
   -0.5527    2.9426    2.1483 C   0  0  0  0  0  0  0  0  0  0  0  0
   -1.4785   -0.9983   -0.0474 O   0  0  0  0  0  0  0  0  0  0  0  0
   -2.2329   -2.1558   -0.4681 C   0  0  0  0  0  0  0  0  0  0  0  0
   -3.0908   -2.6748    0.6678 C   0  0  0  0  0  0  0  0  0  0  0  0
    1.1044   -2.3785    3.9307 H   0  0  0  0  0  0  0  0  0  0  0  0
    2.3018   -2.3549    2.6275 H   0  0  0  0  0  0  0  0  0  0  0  0
    2.2323   -1.0208    3.7943 H   0  0  0  0  0  0  0  0  0  0  0  0
   -0.0239   -0.3739    2.9090 H   0  0  0  0  0  0  0  0  0  0  0  0
    0.0487   -1.7463    1.7736 H   0  0  0  0  0  0  0  0  0  0  0  0
    3.9033    0.2203    1.9977 H   0  0  0  0  0  0  0  0  0  0  0  0
    5.2048    0.1638    0.7755 H   0  0  0  0  0  0  0  0  0  0  0  0
    4.0743    2.0346   -0.4617 H   0  0  0  0  0  0  0  0  0  0  0  0
    2.8065    2.0730    0.7696 H   0  0  0  0  0  0  0  0  0  0  0  0
    4.4675    2.5121    1.1992 H   0  0  0  0  0  0  0  0  0  0  0  0
    0.1850   -0.9280   -2.1771 H   0  0  0  0  0  0  0  0  0  0  0  0
    0.5379    0.2916   -3.4478 H   0  0  0  0  0  0  0  0  0  0  0  0
   -0.3845    3.1164   -0.0066 H   0  0  0  0  0  0  0  0  0  0  0  0
   -2.0634    2.9809    0.5911 H   0  0  0  0  0  0  0  0  0  0  0  0
   -1.2334    2.5066    2.8745 H   0  0  0  0  0  0  0  0  0  0  0  0
    0.4385    2.5219    2.2950 H   0  0  0  0  0  0  0  0  0  0  0  0
   -0.5143    4.0171    2.2933 H   0  0  0  0  0  0  0  0  0  0  0  0
   -2.8501   -1.8906   -1.3329 H   0  0  0  0  0  0  0  0  0  0  0  0
   -1.4782   -2.8883   -0.7669 H   0  0  0  0  0  0  0  0  0  0  0  0
   -2.4702   -2.9204    1.5250 H   0  0  0  0  0  0  0  0  0  0  0  0
   -3.8180   -1.9206    0.9615 H   0  0  0  0  0  0  0  0  0  0  0  0
   -3.6153   -3.5655    0.3375 H   0  0  0  0  0  0  0  0  0  0  0  0
  1  2  1  0  0  0  0
  2  3  1  0  0  0  0
  3  4  1  0  0  0  0
  4  5  2  0  0  0  0
  4  6  2  0  0  0  0
  6  7  1  0  0  0  0
  7  8  1  0  0  0  0
  4  9  1  0  0  0  0
  9 10  1  0  0  0  0
 10 11  1  0  0  0  0
 11 12  1  0  0  0  0
 12 13  2  0  0  0  0
 12 14  2  0  0  0  0
 14 15  1  0  0  0  0
 15 16  1  0  0  0  0
 12 17  2  0  0  0  0
 17 18  1  0  0  0  0
 18 19  1  0  0  0  0
  1 20  1  0  0  0  0
  1 21  1  0  0  0  0
  1 22  1  0  0  0  0
  2 23  1  0  0  0  0
  2 24  1  0  0  0  0
  7 25  1  0  0  0  0
  7 26  1  0  0  0  0
  8 27  1  0  0  0  0
  8 28  1  0  0  0  0
  8 29  1  0  0  0  0
 10 30  1  0  0  0  0
 10 31  1  0  0  0  0
 15 32  1  0  0  0  0
 15 33  1  0  0  0  0
 16 34  1  0  0  0  0
 16 35  1  0  0  0  0
 16 36  1  0  0  0  0
 18 37  1  0  0  0  0
 18 38  1  0  0  0  0
 19 39  1  0  0  0  0
 19 40  1  0  0  0  0
 19 41  1  0  0  0  0
M  END
