41
 xtb: 6.7.1 (edcfbbe)
C            1.68390554949524        0.06159595264266       -3.20378943168638
C            2.45315470403434        0.30564257793721       -1.93191283374359
O            1.72661188124398       -0.38343164228206       -0.85053204657669
P            2.30166385752670       -0.36635456141343        0.64806404646061
S            2.93510342729403        1.33828143184800        1.34205871388074
O            3.37830516817020       -1.56415617083341        0.56497732790519
C            4.32809150902194       -1.79349544857090        1.66392754389010
C            5.11252809549215       -3.03241909481921        1.31997933089900
S            0.75714044866017       -1.32205007448478        1.73152013953515
C           -0.29379983359374        0.09685879607724        2.27947404270641
S           -2.03905578070854       -0.02966229604959        1.73974890276802
P           -1.94481970296560        0.82874615970049       -0.20838711133011
S           -0.95265665390556        2.49310841715433       -0.34393272891367
O           -3.51223847242105        0.83310438991531       -0.56358536162200
C           -4.42249441377515        1.83248126413445        0.02703409826248
C           -4.98623186727658        2.68958016880161       -1.07650682326850
O           -1.37916768122359       -0.26813834599475       -1.22241102754528
C           -1.97825873154855       -1.60941625046913       -1.36193167414415
C           -2.59151112817928       -1.72957559776927       -2.73309925621672
H            1.60883619325857       -1.00836697876600       -3.41784934562114
H            0.67800229763347        0.48612186065369       -3.14089910660765
H            2.21160802146400        0.54398717215300       -4.03227514674468
H            2.50248366593447        1.36964601456891       -1.68196584471809
H            3.46677804883721       -0.10472690479507       -1.98257439733374
H            4.97025369537934       -0.91180500493843        1.74554368927769
H            3.76367318698578       -1.91628885183996        2.59444632629682
H            4.45677253633948       -3.90390947236489        1.24061656843802
H            5.65212992021191       -2.90265404214864        0.37758576734746
H            5.84298658030526       -3.21986119404624        2.11282711415379
H            0.14558005614275        1.04128672511207        1.93937057851426
H           -0.31964830250018        0.08741151468154        3.37156481577893
H           -5.19665356931746        1.25540437809786        0.53853751787620
H           -3.87834137927712        2.42999859996275        0.76515832158201
H           -5.51381206976726        2.07942617640736       -1.81500477286149
H           -5.69652776313025        3.40193500779887       -0.64494771070524
H           -4.19271858176211        3.25134194797662       -1.57758217370365
H           -1.14851027716345       -2.30606754508314       -1.21935844261992
H           -2.71443852327568       -1.76989575716808       -0.56922298711271
H           -1.84216289572658       -1.55931958600308       -3.51133541463327
H           -2.99111594757567       -2.74144589545113       -2.85463671360623
H           -3.41009803715165       -1.01593998529776       -2.86121584368597
