 xtb: 6.7.1 (edcfbbe)
          04092505213D

 41 40  0     0  0            999 V2000
    3.4098    1.9272    1.5368 C   0  0  0  0  0  0  0  0  0  0  0  0
    1.9211    1.7823    1.3062 C   0  0  0  0  0  0  0  0  0  0  0  0
    1.6523    0.7836    0.3033 O   0  0  0  0  0  0  0  0  0  0  0  0
    1.7903   -0.7598    0.5969 P   0  0  0  0  0  0  0  0  0  0  0  0
    1.6573   -1.3246    2.4663 S   0  0  0  0  0  0  0  0  0  0  0  0
    3.1641   -1.0552   -0.1612 O   0  0  0  0  0  0  0  0  0  0  0  0
    3.7193   -2.3812   -0.2318 C   0  0  0  0  0  0  0  0  0  0  0  0
    4.7023   -2.6190    0.8981 C   0  0  0  0  0  0  0  0  0  0  0  0
    0.3311   -1.6374   -0.6708 S   0  0  0  0  0  0  0  0  0  0  0  0
    0.3992   -0.5234   -2.1000 C   0  0  0  0  0  0  0  0  0  0  0  0
   -0.2965    1.1376   -1.8204 S   0  0  0  0  0  0  0  0  0  0  0  0
   -1.9305    0.6533   -0.5847 P   0  0  0  0  0  0  0  0  0  0  0  0
   -3.0698   -0.8682   -1.0854 S   0  0  0  0  0  0  0  0  0  0  0  0
   -2.6512    2.0594   -0.4210 O   0  0  0  0  0  0  0  0  0  0  0  0
   -3.0496    2.9345   -1.4937 C   0  0  0  0  0  0  0  0  0  0  0  0
   -3.8613    2.2336   -2.5630 C   0  0  0  0  0  0  0  0  0  0  0  0
   -1.2453    0.5233    0.8493 O   0  0  0  0  0  0  0  0  0  0  0  0
   -1.8695   -0.2245    1.9091 C   0  0  0  0  0  0  0  0  0  0  0  0
   -3.0697    0.5103    2.4645 C   0  0  0  0  0  0  0  0  0  0  0  0
    3.9150    2.1437    0.5995 H   0  0  0  0  0  0  0  0  0  0  0  0
    3.5902    2.7319    2.2424 H   0  0  0  0  0  0  0  0  0  0  0  0
    3.8064    0.9988    1.9463 H   0  0  0  0  0  0  0  0  0  0  0  0
    1.4755    2.6908    0.8983 H   0  0  0  0  0  0  0  0  0  0  0  0
    1.4082    1.4996    2.2309 H   0  0  0  0  0  0  0  0  0  0  0  0
    2.9057   -3.1143   -0.2054 H   0  0  0  0  0  0  0  0  0  0  0  0
    4.2160   -2.4234   -1.2031 H   0  0  0  0  0  0  0  0  0  0  0  0
    5.4867   -1.8678    0.8741 H   0  0  0  0  0  0  0  0  0  0  0  0
    4.1940   -2.5664    1.8585 H   0  0  0  0  0  0  0  0  0  0  0  0
    5.1441   -3.6039    0.7863 H   0  0  0  0  0  0  0  0  0  0  0  0
   -0.1772   -1.0243   -2.8757 H   0  0  0  0  0  0  0  0  0  0  0  0
    1.4316   -0.3707   -2.4063 H   0  0  0  0  0  0  0  0  0  0  0  0
   -3.6355    3.7051   -0.9891 H   0  0  0  0  0  0  0  0  0  0  0  0
   -2.1458    3.3764   -1.9223 H   0  0  0  0  0  0  0  0  0  0  0  0
   -4.7246    1.7395   -2.1235 H   0  0  0  0  0  0  0  0  0  0  0  0
   -4.1973    2.9620   -3.2940 H   0  0  0  0  0  0  0  0  0  0  0  0
   -3.2535    1.4814   -3.0640 H   0  0  0  0  0  0  0  0  0  0  0  0
   -2.1580   -1.2077    1.5199 H   0  0  0  0  0  0  0  0  0  0  0  0
   -1.0824   -0.3514    2.6555 H   0  0  0  0  0  0  0  0  0  0  0  0
   -3.4772   -0.0477    3.3015 H   0  0  0  0  0  0  0  0  0  0  0  0
   -2.7814    1.5049    2.7937 H   0  0  0  0  0  0  0  0  0  0  0  0
   -3.8304    0.6013    1.6896 H   0  0  0  0  0  0  0  0  0  0  0  0
  1  2  1  0  0  0  0
  2  3  1  0  0  0  0
  3  4  2  0  0  0  0
  4  5  2  0  0  0  0
  4  6  1  0  0  0  0
  6  7  1  0  0  0  0
  7  8  1  0  0  0  0
  4  9  1  0  0  0  0
  9 10  1  0  0  0  0
 10 11  1  0  0  0  0
 11 12  1  0  0  0  0
 12 13  2  0  0  0  0
 12 14  2  0  0  0  0
 14 15  1  0  0  0  0
 15 16  1  0  0  0  0
 12 17  1  0  0  0  0
 17 18  1  0  0  0  0
 18 19  1  0  0  0  0
  1 20  1  0  0  0  0
  1 21  1  0  0  0  0
  1 22  1  0  0  0  0
  2 23  1  0  0  0  0
  2 24  1  0  0  0  0
  7 25  1  0  0  0  0
  7 26  1  0  0  0  0
  8 27  1  0  0  0  0
  8 28  1  0  0  0  0
  8 29  1  0  0  0  0
 10 30  1  0  0  0  0
 10 31  1  0  0  0  0
 15 32  1  0  0  0  0
 15 33  1  0  0  0  0
 16 34  1  0  0  0  0
 16 35  1  0  0  0  0
 16 36  1  0  0  0  0
 18 37  1  0  0  0  0
 18 38  1  0  0  0  0
 19 39  1  0  0  0  0
 19 40  1  0  0  0  0
 19 41  1  0  0  0  0
M  END
