 xtb: 6.7.1 (edcfbbe)
          04092505213D

 41 40  0     0  0            999 V2000
    3.5338   -2.6246   -1.9081 C   0  0  0  0  0  0  0  0  0  0  0  0
    4.5538   -1.8388   -1.1120 C   0  0  0  0  0  0  0  0  0  0  0  0
    4.1396   -0.4704   -0.8754 O   0  0  0  0  0  0  0  0  0  0  0  0
    2.8935   -0.0158   -0.0291 P   0  0  0  0  0  0  0  0  0  0  0  0
    3.0932    1.8732    0.4548 S   0  0  0  0  0  0  0  0  0  0  0  0
    2.8987   -1.0977    1.1396 O   0  0  0  0  0  0  0  0  0  0  0  0
    1.8082   -1.3368    2.0448 C   0  0  0  0  0  0  0  0  0  0  0  0
    1.6389   -0.2198    3.0544 C   0  0  0  0  0  0  0  0  0  0  0  0
    1.1428   -0.4586   -1.1813 S   0  0  0  0  0  0  0  0  0  0  0  0
    0.2028    1.0532   -0.8743 C   0  0  0  0  0  0  0  0  0  0  0  0
   -0.8388    0.9536    0.6008 S   0  0  0  0  0  0  0  0  0  0  0  0
   -2.7152    0.4913   -0.3311 P   0  0  0  0  0  0  0  0  0  0  0  0
   -2.7195    0.3694   -2.2837 S   0  0  0  0  0  0  0  0  0  0  0  0
   -3.6965    1.6389    0.1182 O   0  0  0  0  0  0  0  0  0  0  0  0
   -3.9235    2.0028    1.5025 C   0  0  0  0  0  0  0  0  0  0  0  0
   -5.1879    1.3539    2.0277 C   0  0  0  0  0  0  0  0  0  0  0  0
   -3.2580   -0.7483    0.5055 O   0  0  0  0  0  0  0  0  0  0  0  0
   -2.5218   -1.9552    0.7739 C   0  0  0  0  0  0  0  0  0  0  0  0
   -1.9990   -2.6198   -0.4826 C   0  0  0  0  0  0  0  0  0  0  0  0
    3.9404   -3.6052   -2.1350 H   0  0  0  0  0  0  0  0  0  0  0  0
    2.6151   -2.7459   -1.3371 H   0  0  0  0  0  0  0  0  0  0  0  0
    3.2991   -2.1115   -2.8374 H   0  0  0  0  0  0  0  0  0  0  0  0
    5.4888   -1.7217   -1.6621 H   0  0  0  0  0  0  0  0  0  0  0  0
    4.7465   -2.3083   -0.1459 H   0  0  0  0  0  0  0  0  0  0  0  0
    0.8936   -1.4734    1.4595 H   0  0  0  0  0  0  0  0  0  0  0  0
    2.0785   -2.2754    2.5321 H   0  0  0  0  0  0  0  0  0  0  0  0
    2.5768   -0.0354    3.5718 H   0  0  0  0  0  0  0  0  0  0  0  0
    1.3312    0.6988    2.5575 H   0  0  0  0  0  0  0  0  0  0  0  0
    0.8785   -0.4993    3.7761 H   0  0  0  0  0  0  0  0  0  0  0  0
   -0.4354    1.2143   -1.7451 H   0  0  0  0  0  0  0  0  0  0  0  0
    0.9041    1.8758   -0.7238 H   0  0  0  0  0  0  0  0  0  0  0  0
   -3.0498    1.7141    2.0939 H   0  0  0  0  0  0  0  0  0  0  0  0
   -4.0121    3.0906    1.4880 H   0  0  0  0  0  0  0  0  0  0  0  0
   -6.0336    1.6334    1.4054 H   0  0  0  0  0  0  0  0  0  0  0  0
   -5.0902    0.2719    2.0177 H   0  0  0  0  0  0  0  0  0  0  0  0
   -5.3637    1.6908    3.0444 H   0  0  0  0  0  0  0  0  0  0  0  0
   -1.7022   -1.7072    1.4547 H   0  0  0  0  0  0  0  0  0  0  0  0
   -3.2472   -2.5901    1.2857 H   0  0  0  0  0  0  0  0  0  0  0  0
   -1.2536   -1.9903   -0.9686 H   0  0  0  0  0  0  0  0  0  0  0  0
   -1.5436   -3.5707   -0.2256 H   0  0  0  0  0  0  0  0  0  0  0  0
   -2.8105   -2.7889   -1.1864 H   0  0  0  0  0  0  0  0  0  0  0  0
  1  2  1  0  0  0  0
  2  3  1  0  0  0  0
  3  4  2  0  0  0  0
  4  5  2  0  0  0  0
  4  6  2  0  0  0  0
  6  7  1  0  0  0  0
  7  8  1  0  0  0  0
  4  9  1  0  0  0  0
  9 10  1  0  0  0  0
 10 11  1  0  0  0  0
 11 12  1  0  0  0  0
 12 13  2  0  0  0  0
 12 14  2  0  0  0  0
 14 15  1  0  0  0  0
 15 16  1  0  0  0  0
 12 17  2  0  0  0  0
 17 18  1  0  0  0  0
 18 19  1  0  0  0  0
  1 20  1  0  0  0  0
  1 21  1  0  0  0  0
  1 22  1  0  0  0  0
  2 23  1  0  0  0  0
  2 24  1  0  0  0  0
  7 25  1  0  0  0  0
  7 26  1  0  0  0  0
  8 27  1  0  0  0  0
  8 28  1  0  0  0  0
  8 29  1  0  0  0  0
 10 30  1  0  0  0  0
 10 31  1  0  0  0  0
 15 32  1  0  0  0  0
 15 33  1  0  0  0  0
 16 34  1  0  0  0  0
 16 35  1  0  0  0  0
 16 36  1  0  0  0  0
 18 37  1  0  0  0  0
 18 38  1  0  0  0  0
 19 39  1  0  0  0  0
 19 40  1  0  0  0  0
 19 41  1  0  0  0  0
M  END
