 xtb: 6.7.1 (edcfbbe)
          04092509473D

 38 37  0     0  0            999 V2000
    3.7525   -3.9665   -2.3631 C   0  0  0  0  0  0  0  0  0  0  0  0
    3.3302   -3.8984   -0.9042 C   0  0  0  0  0  0  0  0  0  0  0  0
    3.2822   -2.5353   -0.4398 O   0  0  0  0  0  0  0  0  0  0  0  0
    2.1944   -1.8269   -0.6728 C   0  0  0  0  0  0  0  0  0  0  0  0
    1.2035   -2.2455   -1.2298 O   0  0  0  0  0  0  0  0  0  0  0  0
    2.3430   -0.4200   -0.1328 C   0  0  0  0  0  0  0  0  0  0  0  0
    1.0151    0.3185   -0.1580 C   0  0  0  0  0  0  0  0  0  0  0  0
    0.5209    0.1541   -1.1287 H   0  0  0  0  0  0  0  0  0  0  0  0
    1.1860    1.8174   -0.0058 C   0  0  0  0  0  0  0  0  0  0  0  0
    2.1773    2.4037   -0.3786 O   0  0  0  0  0  0  0  0  0  0  0  0
    0.1362    2.3973    0.5334 O   0  0  0  0  0  0  0  0  0  0  0  0
    0.1934    3.8345    0.6814 C   0  0  0  0  0  0  0  0  0  0  0  0
   -0.9613    4.2839    1.5518 C   0  0  0  0  0  0  0  0  0  0  0  0
   -0.1137   -0.3566    1.1030 S   0  0  0  0  0  0  0  0  0  0  0  0
   -1.9594    0.0730    0.1432 P   0  0  0  0  0  0  0  0  0  0  0  0
   -1.8981    0.5180   -1.7612 S   0  0  0  0  0  0  0  0  0  0  0  0
   -2.8536   -1.2033    0.5204 O   0  0  0  0  0  0  0  0  0  0  0  0
   -2.6329   -2.4805   -0.0862 C   0  0  0  0  0  0  0  0  0  0  0  0
   -2.6797    1.1928    0.9889 O   0  0  0  0  0  0  0  0  0  0  0  0
   -2.8669    1.0725    2.4133 C   0  0  0  0  0  0  0  0  0  0  0  0
    4.7056   -3.4633   -2.5009 H   0  0  0  0  0  0  0  0  0  0  0  0
    3.8494   -5.0054   -2.6603 H   0  0  0  0  0  0  0  0  0  0  0  0
    3.0051   -3.4880   -2.9921 H   0  0  0  0  0  0  0  0  0  0  0  0
    4.0634   -4.3771   -0.2551 H   0  0  0  0  0  0  0  0  0  0  0  0
    2.3437   -4.3496   -0.7654 H   0  0  0  0  0  0  0  0  0  0  0  0
    3.0602    0.1237   -0.7534 H   0  0  0  0  0  0  0  0  0  0  0  0
    2.7481   -0.4720    0.8784 H   0  0  0  0  0  0  0  0  0  0  0  0
    1.1630    4.0878    1.1216 H   0  0  0  0  0  0  0  0  0  0  0  0
    0.1423    4.2742   -0.3192 H   0  0  0  0  0  0  0  0  0  0  0  0
   -0.9402    5.3660    1.6313 H   0  0  0  0  0  0  0  0  0  0  0  0
   -1.9018    3.9745    1.1048 H   0  0  0  0  0  0  0  0  0  0  0  0
   -0.8774    3.8501    2.5436 H   0  0  0  0  0  0  0  0  0  0  0  0
   -2.8567   -2.4312   -1.1523 H   0  0  0  0  0  0  0  0  0  0  0  0
   -3.3127   -3.1643    0.4164 H   0  0  0  0  0  0  0  0  0  0  0  0
   -1.5985   -2.7976    0.0514 H   0  0  0  0  0  0  0  0  0  0  0  0
   -1.9047    0.9103    2.8990 H   0  0  0  0  0  0  0  0  0  0  0  0
   -3.5391    0.2450    2.6309 H   0  0  0  0  0  0  0  0  0  0  0  0
   -3.3041    2.0176    2.7242 H   0  0  0  0  0  0  0  0  0  0  0  0
  1  2  1  0  0  0  0
  2  3  1  0  0  0  0
  3  4  1  0  0  0  0
  4  5  2  0  0  0  0
  4  6  1  0  0  0  0
  6  7  1  0  0  0  0
  7  8  1  0  0  0  0
  7  9  1  0  0  0  0
  9 10  2  0  0  0  0
  9 11  1  0  0  0  0
 11 12  1  0  0  0  0
 12 13  1  0  0  0  0
  7 14  1  0  0  0  0
 14 15  1  0  0  0  0
 15 16  2  0  0  0  0
 15 17  1  0  0  0  0
 17 18  1  0  0  0  0
 15 19  2  0  0  0  0
 19 20  1  0  0  0  0
  1 21  1  0  0  0  0
  1 22  1  0  0  0  0
  1 23  1  0  0  0  0
  2 24  1  0  0  0  0
  2 25  1  0  0  0  0
  6 26  1  0  0  0  0
  6 27  1  0  0  0  0
 12 28  1  0  0  0  0
 12 29  1  0  0  0  0
 13 30  1  0  0  0  0
 13 31  1  0  0  0  0
 13 32  1  0  0  0  0
 18 33  1  0  0  0  0
 18 34  1  0  0  0  0
 18 35  1  0  0  0  0
 20 36  1  0  0  0  0
 20 37  1  0  0  0  0
 20 38  1  0  0  0  0
M  END
