 xtb: 6.7.1 (edcfbbe)
          04092505203D

 41 40  0     0  0            999 V2000
    3.2700   -1.5778   -2.1819 C   0  0  0  0  0  0  0  0  0  0  0  0
    1.8423   -1.0817   -2.1309 C   0  0  0  0  0  0  0  0  0  0  0  0
    1.6821    0.0788   -1.2787 O   0  0  0  0  0  0  0  0  0  0  0  0
    2.0381    0.1912    0.2504 P   0  0  0  0  0  0  0  0  0  0  0  0
    1.1599    1.7183    1.1108 S   0  0  0  0  0  0  0  0  0  0  0  0
    3.6237    0.2628    0.2413 O   0  0  0  0  0  0  0  0  0  0  0  0
    4.3861    0.7641    1.3531 C   0  0  0  0  0  0  0  0  0  0  0  0
    4.2977   -0.1387    2.5667 C   0  0  0  0  0  0  0  0  0  0  0  0
    1.5771   -1.6947    1.1057 S   0  0  0  0  0  0  0  0  0  0  0  0
   -0.1666   -1.3526    1.4453 C   0  0  0  0  0  0  0  0  0  0  0  0
   -1.2436   -1.5551   -0.0137 S   0  0  0  0  0  0  0  0  0  0  0  0
   -1.9576    0.4244   -0.4292 P   0  0  0  0  0  0  0  0  0  0  0  0
   -1.0572    1.5246   -1.7727 S   0  0  0  0  0  0  0  0  0  0  0  0
   -2.0793    1.1074    0.9848 O   0  0  0  0  0  0  0  0  0  0  0  0
   -2.9829    0.6498    2.0270 C   0  0  0  0  0  0  0  0  0  0  0  0
   -4.2594    1.4644    2.0179 C   0  0  0  0  0  0  0  0  0  0  0  0
   -3.4767    0.1167   -0.8018 O   0  0  0  0  0  0  0  0  0  0  0  0
   -3.8851   -0.1797   -2.1462 C   0  0  0  0  0  0  0  0  0  0  0  0
   -3.3384   -1.5097   -2.6224 C   0  0  0  0  0  0  0  0  0  0  0  0
    3.9389   -0.7682   -2.4619 H   0  0  0  0  0  0  0  0  0  0  0  0
    3.5700   -1.9638   -1.2097 H   0  0  0  0  0  0  0  0  0  0  0  0
    3.3390   -2.3738   -2.9169 H   0  0  0  0  0  0  0  0  0  0  0  0
    1.1678   -1.8663   -1.7738 H   0  0  0  0  0  0  0  0  0  0  0  0
    1.4984   -0.7182   -3.1009 H   0  0  0  0  0  0  0  0  0  0  0  0
    5.4036    0.8190    0.9636 H   0  0  0  0  0  0  0  0  0  0  0  0
    4.0255    1.7692    1.5941 H   0  0  0  0  0  0  0  0  0  0  0  0
    4.9972    0.2086    3.3202 H   0  0  0  0  0  0  0  0  0  0  0  0
    3.2913   -0.1090    2.9805 H   0  0  0  0  0  0  0  0  0  0  0  0
    4.5380   -1.1635    2.2957 H   0  0  0  0  0  0  0  0  0  0  0  0
   -0.2520   -0.3305    1.8193 H   0  0  0  0  0  0  0  0  0  0  0  0
   -0.4866   -2.0844    2.1818 H   0  0  0  0  0  0  0  0  0  0  0  0
   -3.1924   -0.4124    1.8789 H   0  0  0  0  0  0  0  0  0  0  0  0
   -2.4254    0.7995    2.9541 H   0  0  0  0  0  0  0  0  0  0  0  0
   -4.0250    2.5217    2.1082 H   0  0  0  0  0  0  0  0  0  0  0  0
   -4.8033    1.3037    1.0910 H   0  0  0  0  0  0  0  0  0  0  0  0
   -4.8783    1.1603    2.8563 H   0  0  0  0  0  0  0  0  0  0  0  0
   -4.9747   -0.1846   -2.0953 H   0  0  0  0  0  0  0  0  0  0  0  0
   -3.5438    0.6321   -2.7966 H   0  0  0  0  0  0  0  0  0  0  0  0
   -3.6080   -2.3030   -1.9300 H   0  0  0  0  0  0  0  0  0  0  0  0
   -3.7393   -1.7336   -3.6055 H   0  0  0  0  0  0  0  0  0  0  0  0
   -2.2517   -1.4553   -2.6884 H   0  0  0  0  0  0  0  0  0  0  0  0
  1  2  1  0  0  0  0
  2  3  1  0  0  0  0
  3  4  2  0  0  0  0
  4  5  2  0  0  0  0
  4  6  2  0  0  0  0
  6  7  1  0  0  0  0
  7  8  1  0  0  0  0
  4  9  1  0  0  0  0
  9 10  1  0  0  0  0
 10 11  1  0  0  0  0
 11 12  1  0  0  0  0
 12 13  2  0  0  0  0
 12 14  2  0  0  0  0
 14 15  1  0  0  0  0
 15 16  1  0  0  0  0
 12 17  2  0  0  0  0
 17 18  1  0  0  0  0
 18 19  1  0  0  0  0
  1 20  1  0  0  0  0
  1 21  1  0  0  0  0
  1 22  1  0  0  0  0
  2 23  1  0  0  0  0
  2 24  1  0  0  0  0
  7 25  1  0  0  0  0
  7 26  1  0  0  0  0
  8 27  1  0  0  0  0
  8 28  1  0  0  0  0
  8 29  1  0  0  0  0
 10 30  1  0  0  0  0
 10 31  1  0  0  0  0
 15 32  1  0  0  0  0
 15 33  1  0  0  0  0
 16 34  1  0  0  0  0
 16 35  1  0  0  0  0
 16 36  1  0  0  0  0
 18 37  1  0  0  0  0
 18 38  1  0  0  0  0
 19 39  1  0  0  0  0
 19 40  1  0  0  0  0
 19 41  1  0  0  0  0
M  END
