 xtb: 6.7.1 (edcfbbe)
          04092505203D

 41 40  0     0  0            999 V2000
    3.7577    1.5499   -1.7400 C   0  0  0  0  0  0  0  0  0  0  0  0
    2.4149    0.8812   -1.9479 C   0  0  0  0  0  0  0  0  0  0  0  0
    2.2483   -0.2569   -1.0844 O   0  0  0  0  0  0  0  0  0  0  0  0
    2.0346   -0.1041    0.4946 P   0  0  0  0  0  0  0  0  0  0  0  0
    1.0240    1.4699    1.0654 S   0  0  0  0  0  0  0  0  0  0  0  0
    3.4636   -0.0782    1.1772 O   0  0  0  0  0  0  0  0  0  0  0  0
    4.4873   -1.0701    0.9144 C   0  0  0  0  0  0  0  0  0  0  0  0
    4.5839   -2.0523    2.0641 C   0  0  0  0  0  0  0  0  0  0  0  0
    1.3252   -2.0444    0.8904 S   0  0  0  0  0  0  0  0  0  0  0  0
   -0.2520   -2.0253    0.0007 C   0  0  0  0  0  0  0  0  0  0  0  0
   -1.6362   -1.3386    0.9785 S   0  0  0  0  0  0  0  0  0  0  0  0
   -2.1630    0.3292   -0.2022 P   0  0  0  0  0  0  0  0  0  0  0  0
   -1.1124    0.6649   -1.8269 S   0  0  0  0  0  0  0  0  0  0  0  0
   -2.2111    1.4297    0.9284 O   0  0  0  0  0  0  0  0  0  0  0  0
   -2.1710    2.8457    0.6663 C   0  0  0  0  0  0  0  0  0  0  0  0
   -3.3404    3.3110   -0.1752 C   0  0  0  0  0  0  0  0  0  0  0  0
   -3.7205    0.1468   -0.4903 O   0  0  0  0  0  0  0  0  0  0  0  0
   -4.2288   -0.5468   -1.6405 C   0  0  0  0  0  0  0  0  0  0  0  0
   -3.9106   -2.0282   -1.6076 C   0  0  0  0  0  0  0  0  0  0  0  0
    4.5638    0.8376   -1.8958 H   0  0  0  0  0  0  0  0  0  0  0  0
    3.8607    2.3700   -2.4436 H   0  0  0  0  0  0  0  0  0  0  0  0
    3.8190    1.9444   -0.7259 H   0  0  0  0  0  0  0  0  0  0  0  0
    2.3107    0.4679   -2.9522 H   0  0  0  0  0  0  0  0  0  0  0  0
    1.5968    1.5841   -1.7619 H   0  0  0  0  0  0  0  0  0  0  0  0
    4.2601   -1.5788   -0.0255 H   0  0  0  0  0  0  0  0  0  0  0  0
    5.4078   -0.4923    0.8117 H   0  0  0  0  0  0  0  0  0  0  0  0
    3.6644   -2.6267    2.1525 H   0  0  0  0  0  0  0  0  0  0  0  0
    5.4118   -2.7301    1.8821 H   0  0  0  0  0  0  0  0  0  0  0  0
    4.7545   -1.5180    2.9946 H   0  0  0  0  0  0  0  0  0  0  0  0
   -0.4810   -3.0680   -0.2016 H   0  0  0  0  0  0  0  0  0  0  0  0
   -0.1446   -1.4489   -0.9219 H   0  0  0  0  0  0  0  0  0  0  0  0
   -2.1823    3.2888    1.6631 H   0  0  0  0  0  0  0  0  0  0  0  0
   -1.2159    3.0761    0.1833 H   0  0  0  0  0  0  0  0  0  0  0  0
   -3.2774    2.8772   -1.1729 H   0  0  0  0  0  0  0  0  0  0  0  0
   -4.2770    3.0054    0.2841 H   0  0  0  0  0  0  0  0  0  0  0  0
   -3.3117    4.3928   -0.2588 H   0  0  0  0  0  0  0  0  0  0  0  0
   -5.3036   -0.3648   -1.6007 H   0  0  0  0  0  0  0  0  0  0  0  0
   -3.8053   -0.0838   -2.5378 H   0  0  0  0  0  0  0  0  0  0  0  0
   -2.8386   -2.1799   -1.7273 H   0  0  0  0  0  0  0  0  0  0  0  0
   -4.2244   -2.4610   -0.6610 H   0  0  0  0  0  0  0  0  0  0  0  0
   -4.4291   -2.5241   -2.4218 H   0  0  0  0  0  0  0  0  0  0  0  0
  1  2  1  0  0  0  0
  2  3  1  0  0  0  0
  3  4  1  0  0  0  0
  4  5  2  0  0  0  0
  4  6  2  0  0  0  0
  6  7  1  0  0  0  0
  7  8  1  0  0  0  0
  4  9  1  0  0  0  0
  9 10  1  0  0  0  0
 10 11  1  0  0  0  0
 11 12  1  0  0  0  0
 12 13  2  0  0  0  0
 12 14  2  0  0  0  0
 14 15  1  0  0  0  0
 15 16  1  0  0  0  0
 12 17  2  0  0  0  0
 17 18  1  0  0  0  0
 18 19  1  0  0  0  0
  1 20  1  0  0  0  0
  1 21  1  0  0  0  0
  1 22  1  0  0  0  0
  2 23  1  0  0  0  0
  2 24  1  0  0  0  0
  7 25  1  0  0  0  0
  7 26  1  0  0  0  0
  8 27  1  0  0  0  0
  8 28  1  0  0  0  0
  8 29  1  0  0  0  0
 10 30  1  0  0  0  0
 10 31  1  0  0  0  0
 15 32  1  0  0  0  0
 15 33  1  0  0  0  0
 16 34  1  0  0  0  0
 16 35  1  0  0  0  0
 16 36  1  0  0  0  0
 18 37  1  0  0  0  0
 18 38  1  0  0  0  0
 19 39  1  0  0  0  0
 19 40  1  0  0  0  0
 19 41  1  0  0  0  0
M  END
