22
CONF1
C 2.7749666235 -1.3915985455 -0.0001369018
C 1.5784664928 -0.6980940262 -0.0001485677
C 1.5784713402 0.6980809621 -0.0000812133
C 2.7749590194 1.3916014917 0.0000460401
C 3.9767980748 0.6950558522 0.0000788624
C 3.9767888323 -0.6950394741 -0.0000323788
Cl 5.4631932859 -1.5688469998 -0.0000439926
Cl 5.4631883580 1.5688460488 0.0002574593
O 0.4100377713 1.4242764262 -0.0001378190
C -0.7431813552 0.6990787809 -0.0001190069
C -0.7431821032 -0.6990842383 -0.0001225285
C -1.9510866127 -1.3892835139 -0.0000247142
C -3.1620451103 -0.6952469951 0.0000519516
C -3.1620417788 0.6952478601 0.0000055777
C -1.9510849889 1.3892874990 -0.0000774244
Cl -1.9225286564 3.1042657377 -0.0001353832
Cl -4.6422779640 1.5599723208 0.0000676085
Cl -4.6422743035 -1.5599663037 0.0002060415
Cl -1.9225373720 -3.1042695368 0.0000017403
O 0.4100395903 -1.4242833604 -0.0002184893
H 2.7593358829 -2.4683101219 -0.0002166360
H 2.7593028359 2.4683082717 0.0001162531
