 xtb: 6.7.1 (edcfbbe)
          04092505213D

 41 40  0     0  0            999 V2000
    2.7935   -2.2745   -2.5252 C   0  0  0  0  0  0  0  0  0  0  0  0
    3.4841   -1.1150   -1.8344 C   0  0  0  0  0  0  0  0  0  0  0  0
    2.9771   -0.9852   -0.4881 O   0  0  0  0  0  0  0  0  0  0  0  0
    2.2186    0.2867    0.0653 P   0  0  0  0  0  0  0  0  0  0  0  0
    1.5616    1.5393   -1.3051 S   0  0  0  0  0  0  0  0  0  0  0  0
    3.3253    0.9347    1.0072 O   0  0  0  0  0  0  0  0  0  0  0  0
    3.2177    2.2677    1.5303 C   0  0  0  0  0  0  0  0  0  0  0  0
    2.0993    2.3862    2.5461 C   0  0  0  0  0  0  0  0  0  0  0  0
    0.9662   -0.6785    1.4628 S   0  0  0  0  0  0  0  0  0  0  0  0
    0.1995   -1.9166    0.3741 C   0  0  0  0  0  0  0  0  0  0  0  0
   -0.6018   -1.2047   -1.0916 S   0  0  0  0  0  0  0  0  0  0  0  0
   -1.9667    0.1209   -0.1566 P   0  0  0  0  0  0  0  0  0  0  0  0
   -1.4374    1.7995    0.6912 S   0  0  0  0  0  0  0  0  0  0  0  0
   -2.7345   -0.9032    0.7999 O   0  0  0  0  0  0  0  0  0  0  0  0
   -3.0895   -0.6370    2.1725 C   0  0  0  0  0  0  0  0  0  0  0  0
   -2.2588   -1.4846    3.1152 C   0  0  0  0  0  0  0  0  0  0  0  0
   -2.9547    0.4284   -1.3537 O   0  0  0  0  0  0  0  0  0  0  0  0
   -3.6348   -0.6124   -2.1039 C   0  0  0  0  0  0  0  0  0  0  0  0
   -4.9873   -0.0778   -2.5276 C   0  0  0  0  0  0  0  0  0  0  0  0
    3.2100   -2.3912   -3.5204 H   0  0  0  0  0  0  0  0  0  0  0  0
    2.9468   -3.1916   -1.9636 H   0  0  0  0  0  0  0  0  0  0  0  0
    1.7256   -2.0793   -2.6083 H   0  0  0  0  0  0  0  0  0  0  0  0
    3.3101   -0.1770   -2.3717 H   0  0  0  0  0  0  0  0  0  0  0  0
    4.5569   -1.2868   -1.7337 H   0  0  0  0  0  0  0  0  0  0  0  0
    4.1942    2.4529    1.9800 H   0  0  0  0  0  0  0  0  0  0  0  0
    3.0540    2.9571    0.6951 H   0  0  0  0  0  0  0  0  0  0  0  0
    2.2091    1.6298    3.3194 H   0  0  0  0  0  0  0  0  0  0  0  0
    2.1233    3.3725    2.9980 H   0  0  0  0  0  0  0  0  0  0  0  0
    1.1321    2.2529    2.0585 H   0  0  0  0  0  0  0  0  0  0  0  0
   -0.5393   -2.4398    0.9768 H   0  0  0  0  0  0  0  0  0  0  0  0
    0.9611   -2.5982    0.0019 H   0  0  0  0  0  0  0  0  0  0  0  0
   -2.9456    0.4292    2.3742 H   0  0  0  0  0  0  0  0  0  0  0  0
   -4.1499   -0.8850    2.2454 H   0  0  0  0  0  0  0  0  0  0  0  0
   -1.2091   -1.2021    3.0547 H   0  0  0  0  0  0  0  0  0  0  0  0
   -2.6071   -1.3201    4.1297 H   0  0  0  0  0  0  0  0  0  0  0  0
   -2.3659   -2.5377    2.8699 H   0  0  0  0  0  0  0  0  0  0  0  0
   -3.0100   -0.8499   -2.9678 H   0  0  0  0  0  0  0  0  0  0  0  0
   -3.7344   -1.4968   -1.4704 H   0  0  0  0  0  0  0  0  0  0  0  0
   -4.8603    0.8266   -3.1158 H   0  0  0  0  0  0  0  0  0  0  0  0
   -5.4943   -0.8284   -3.1253 H   0  0  0  0  0  0  0  0  0  0  0  0
   -5.5902    0.1567   -1.6546 H   0  0  0  0  0  0  0  0  0  0  0  0
  1  2  1  0  0  0  0
  2  3  1  0  0  0  0
  3  4  2  0  0  0  0
  4  5  2  0  0  0  0
  4  6  2  0  0  0  0
  6  7  1  0  0  0  0
  7  8  1  0  0  0  0
  4  9  1  0  0  0  0
  9 10  1  0  0  0  0
 10 11  1  0  0  0  0
 11 12  1  0  0  0  0
 12 13  2  0  0  0  0
 12 14  2  0  0  0  0
 14 15  1  0  0  0  0
 15 16  1  0  0  0  0
 12 17  2  0  0  0  0
 17 18  1  0  0  0  0
 18 19  1  0  0  0  0
  1 20  1  0  0  0  0
  1 21  1  0  0  0  0
  1 22  1  0  0  0  0
  2 23  1  0  0  0  0
  2 24  1  0  0  0  0
  7 25  1  0  0  0  0
  7 26  1  0  0  0  0
  8 27  1  0  0  0  0
  8 28  1  0  0  0  0
  8 29  1  0  0  0  0
 10 30  1  0  0  0  0
 10 31  1  0  0  0  0
 15 32  1  0  0  0  0
 15 33  1  0  0  0  0
 16 34  1  0  0  0  0
 16 35  1  0  0  0  0
 16 36  1  0  0  0  0
 18 37  1  0  0  0  0
 18 38  1  0  0  0  0
 19 39  1  0  0  0  0
 19 40  1  0  0  0  0
 19 41  1  0  0  0  0
M  END
