 xtb: 6.7.1 (edcfbbe)
          04092514013D

 41 40  0     0  0            999 V2000
    5.5596   -1.5810   -0.1783 C   0  0  0  0  0  0  0  0  0  0  0  0
    4.9388   -0.9575   -1.4115 C   0  0  0  0  0  0  0  0  0  0  0  0
    3.5004   -1.0823   -1.4102 O   0  0  0  0  0  0  0  0  0  0  0  0
    2.5708   -0.2606   -0.4297 P   0  0  0  0  0  0  0  0  0  0  0  0
    3.1951    1.5552   -0.0173 S   0  0  0  0  0  0  0  0  0  0  0  0
    2.4488   -1.2913    0.7800 O   0  0  0  0  0  0  0  0  0  0  0  0
    1.4663   -1.2354    1.8257 C   0  0  0  0  0  0  0  0  0  0  0  0
    1.7761   -0.1682    2.8567 C   0  0  0  0  0  0  0  0  0  0  0  0
    0.7306   -0.4270   -1.4783 S   0  0  0  0  0  0  0  0  0  0  0  0
    0.0662    1.2392   -1.1791 C   0  0  0  0  0  0  0  0  0  0  0  0
   -0.7070    1.4485    0.4503 S   0  0  0  0  0  0  0  0  0  0  0  0
   -2.4265    0.2710    0.0972 P   0  0  0  0  0  0  0  0  0  0  0  0
   -3.2602    0.4045   -1.6757 S   0  0  0  0  0  0  0  0  0  0  0  0
   -3.3772    0.5886    1.3295 O   0  0  0  0  0  0  0  0  0  0  0  0
   -4.4136    1.5865    1.2985 C   0  0  0  0  0  0  0  0  0  0  0  0
   -3.8604    2.9969    1.3289 C   0  0  0  0  0  0  0  0  0  0  0  0
   -1.8551   -1.1560    0.4916 O   0  0  0  0  0  0  0  0  0  0  0  0
   -2.4295   -2.3853    0.0023 C   0  0  0  0  0  0  0  0  0  0  0  0
   -3.7674   -2.6849    0.6460 C   0  0  0  0  0  0  0  0  0  0  0  0
    5.2330   -2.6121   -0.0728 H   0  0  0  0  0  0  0  0  0  0  0  0
    6.6415   -1.5518   -0.2661 H   0  0  0  0  0  0  0  0  0  0  0  0
    5.2597   -1.0248    0.7086 H   0  0  0  0  0  0  0  0  0  0  0  0
    5.2444   -1.4748   -2.3221 H   0  0  0  0  0  0  0  0  0  0  0  0
    5.1987    0.1036   -1.4815 H   0  0  0  0  0  0  0  0  0  0  0  0
    0.4788   -1.0726    1.3820 H   0  0  0  0  0  0  0  0  0  0  0  0
    1.5025   -2.2335    2.2666 H   0  0  0  0  0  0  0  0  0  0  0  0
    2.7771   -0.3101    3.2555 H   0  0  0  0  0  0  0  0  0  0  0  0
    1.7122    0.8238    2.4138 H   0  0  0  0  0  0  0  0  0  0  0  0
    1.0541   -0.2371    3.6641 H   0  0  0  0  0  0  0  0  0  0  0  0
   -0.6786    1.4141   -1.9549 H   0  0  0  0  0  0  0  0  0  0  0  0
    0.8750    1.9685   -1.2288 H   0  0  0  0  0  0  0  0  0  0  0  0
   -5.0188    1.4308    0.3996 H   0  0  0  0  0  0  0  0  0  0  0  0
   -5.0081    1.3722    2.1881 H   0  0  0  0  0  0  0  0  0  0  0  0
   -3.3168    3.2084    0.4093 H   0  0  0  0  0  0  0  0  0  0  0  0
   -4.6833    3.6993    1.4203 H   0  0  0  0  0  0  0  0  0  0  0  0
   -3.1852    3.1224    2.1713 H   0  0  0  0  0  0  0  0  0  0  0  0
   -2.5293   -2.3111   -1.0854 H   0  0  0  0  0  0  0  0  0  0  0  0
   -1.6834   -3.1411    0.2514 H   0  0  0  0  0  0  0  0  0  0  0  0
   -4.5007   -1.9364    0.3487 H   0  0  0  0  0  0  0  0  0  0  0  0
   -4.1094   -3.6618    0.3176 H   0  0  0  0  0  0  0  0  0  0  0  0
   -3.6763   -2.6787    1.7288 H   0  0  0  0  0  0  0  0  0  0  0  0
  1  2  1  0  0  0  0
  2  3  1  0  0  0  0
  3  4  2  0  0  0  0
  4  5  2  0  0  0  0
  4  6  2  0  0  0  0
  6  7  1  0  0  0  0
  7  8  1  0  0  0  0
  4  9  1  0  0  0  0
  9 10  1  0  0  0  0
 10 11  1  0  0  0  0
 11 12  1  0  0  0  0
 12 13  2  0  0  0  0
 12 14  2  0  0  0  0
 14 15  1  0  0  0  0
 15 16  1  0  0  0  0
 12 17  2  0  0  0  0
 17 18  1  0  0  0  0
 18 19  1  0  0  0  0
  1 20  1  0  0  0  0
  1 21  1  0  0  0  0
  1 22  1  0  0  0  0
  2 23  1  0  0  0  0
  2 24  1  0  0  0  0
  7 25  1  0  0  0  0
  7 26  1  0  0  0  0
  8 27  1  0  0  0  0
  8 28  1  0  0  0  0
  8 29  1  0  0  0  0
 10 30  1  0  0  0  0
 10 31  1  0  0  0  0
 15 32  1  0  0  0  0
 15 33  1  0  0  0  0
 16 34  1  0  0  0  0
 16 35  1  0  0  0  0
 16 36  1  0  0  0  0
 18 37  1  0  0  0  0
 18 38  1  0  0  0  0
 19 39  1  0  0  0  0
 19 40  1  0  0  0  0
 19 41  1  0  0  0  0
M  END
