  27
 
 C          2.8622864353        0.0016421550       -0.8681701242
 C          2.5038336470       -1.1286995196        0.0951657316
 H          2.6157565002       -2.1463121025       -0.2633966062
 C          1.0994155314       -0.7741248833        0.6296064988
 H          1.0043009835       -1.1992394147        1.6309485833
 C          1.0988903985        0.7774915802        0.6274594622
 H          1.0012779384        1.2053796467        1.6273754212
 C          2.5037961387        1.1320366070        0.0948303036
 H          2.6159774341        2.1496204005       -0.2637572721
 C          3.3802522448        0.7365916648        1.2954052007
 H          3.4104559455        1.3455401282        2.1863028033
 C          3.3807961339       -0.7329729488        1.2953026093
 H          3.4115041189       -1.3420189638        2.1860882545
 O          4.5352871782        0.0022225592        0.9998011175
 C         -0.2296115738        1.1167409982       -0.1047663407
 C         -1.2637701150        0.6731274290        0.9353584075
 C         -1.2635801325       -0.6669963868        0.9394809510
 C         -0.2302035096       -1.1167951167       -0.0986779207
 C         -0.5068869846       -0.0029775326       -1.1373717095
 Cl        -2.2527360104       -0.0030769783       -1.6224548996
 Cl         0.3073309058       -0.0095093273       -2.6839285921
 Cl        -0.3897316627       -2.7639897070       -0.6707631523
 Cl        -2.1193427499       -1.7385753641        1.9280159855
 Cl        -2.1196865117        1.7506195431        1.9172400171
 Cl        -0.3878684644        2.7606586181       -0.6863269763
 H          2.3178164134        0.0021174732       -1.7940510982
 H          3.9292501820        0.0014394864       -1.0846239365
          27
        -61.13238054
 C          2.8606321087        0.0004653655       -0.8209345841
 C          2.4859980467       -1.1300087231        0.1357852468
 H          2.6044493392       -2.1473640628       -0.2213648054
 C          1.0724642898       -0.7758774704        0.6454812264
 H          0.9597656617       -1.2021671097        1.6445025713
 C          1.0724514438        0.7759222683        0.6455437769
 H          0.9592541720        1.2021720583        1.6445191248
 C          2.4860214976        1.1303915859        0.1363891889
 H          2.6046375608        2.1479642984       -0.2201402389
 C          3.3420120646        0.7345089529        1.3514838659
 H          3.3565247195        1.3427164546        2.2432186250
 C          3.3420372131       -0.7348991481        1.3510693390
 H          3.3566084254       -1.3436897880        2.2424149403
 O          4.5016476574       -0.0000836058        1.0760546475
 C         -0.2443199958        1.1167348838       -0.1067060586
 C         -1.2955206041        0.6703195048        0.9149884144
 C         -1.2956025111       -0.6697733585        0.9151963577
 C         -0.2444433761       -1.1168465712       -0.1062855733
 C         -0.5041256011       -0.0002624550       -1.1462710405
 Cl        -2.2418666539       -0.0003900806       -1.6607263808
 Cl         0.3355143768       -0.0006063951       -2.6797315329
 Cl        -0.3947052058       -2.7623655123       -0.6852654148
 Cl        -2.1691821258       -1.7434048156        1.8856152319
 Cl        -2.1691341353        1.7445264579        1.8847785221
 Cl        -0.3941893105        2.7620213850       -0.6864414639
 H          2.3311359784        0.0007371970       -1.7556313572
 H          3.9309487527        0.0006181679       -1.0200976461
