 xtb: 6.7.1 (edcfbbe)
          04092505213D

 41 40  0     0  0            999 V2000
    2.3604   -0.5101   -3.7257 C   0  0  0  0  0  0  0  0  0  0  0  0
    1.7453   -0.1762   -2.3824 C   0  0  0  0  0  0  0  0  0  0  0  0
    2.6547   -0.6235   -1.3628 O   0  0  0  0  0  0  0  0  0  0  0  0
    2.4625   -0.2707    0.1671 P   0  0  0  0  0  0  0  0  0  0  0  0
    2.4559    1.6302    0.6617 S   0  0  0  0  0  0  0  0  0  0  0  0
    3.7173   -1.0983    0.6584 O   0  0  0  0  0  0  0  0  0  0  0  0
    4.3775   -0.8252    1.9061 C   0  0  0  0  0  0  0  0  0  0  0  0
    3.4993   -1.1533    3.0972 C   0  0  0  0  0  0  0  0  0  0  0  0
    0.7484   -1.4058    0.7336 S   0  0  0  0  0  0  0  0  0  0  0  0
   -0.0562   -0.2190    1.8682 C   0  0  0  0  0  0  0  0  0  0  0  0
   -1.8573   -0.3354    1.8116 S   0  0  0  0  0  0  0  0  0  0  0  0
   -2.1749    0.2712   -0.1762 P   0  0  0  0  0  0  0  0  0  0  0  0
   -0.9533    1.5932   -0.9735 S   0  0  0  0  0  0  0  0  0  0  0  0
   -3.7079    0.6887   -0.2250 O   0  0  0  0  0  0  0  0  0  0  0  0
   -4.1554    2.0295    0.0396 C   0  0  0  0  0  0  0  0  0  0  0  0
   -3.9142    2.4406    1.4775 C   0  0  0  0  0  0  0  0  0  0  0  0
   -2.1898   -1.1492   -0.8755 O   0  0  0  0  0  0  0  0  0  0  0  0
   -2.2055   -1.3162   -2.3079 C   0  0  0  0  0  0  0  0  0  0  0  0
   -3.6182   -1.2834   -2.8543 C   0  0  0  0  0  0  0  0  0  0  0  0
    1.6881   -0.1910   -4.5153 H   0  0  0  0  0  0  0  0  0  0  0  0
    3.3119    0.0023   -3.8334 H   0  0  0  0  0  0  0  0  0  0  0  0
    2.5264   -1.5809   -3.7983 H   0  0  0  0  0  0  0  0  0  0  0  0
    0.7889   -0.6904   -2.2432 H   0  0  0  0  0  0  0  0  0  0  0  0
    1.5801    0.9010   -2.2691 H   0  0  0  0  0  0  0  0  0  0  0  0
    5.2662   -1.4567    1.8726 H   0  0  0  0  0  0  0  0  0  0  0  0
    4.6700    0.2295    1.9232 H   0  0  0  0  0  0  0  0  0  0  0  0
    4.0820   -1.0699    4.0090 H   0  0  0  0  0  0  0  0  0  0  0  0
    2.6696   -0.4486    3.1439 H   0  0  0  0  0  0  0  0  0  0  0  0
    3.1072   -2.1635    3.0097 H   0  0  0  0  0  0  0  0  0  0  0  0
    0.2686    0.7890    1.5935 H   0  0  0  0  0  0  0  0  0  0  0  0
    0.2161   -0.4579    2.8935 H   0  0  0  0  0  0  0  0  0  0  0  0
   -3.6373    2.7079   -0.6460 H   0  0  0  0  0  0  0  0  0  0  0  0
   -5.2197    2.0011   -0.1980 H   0  0  0  0  0  0  0  0  0  0  0  0
   -2.8447    2.5266    1.6662 H   0  0  0  0  0  0  0  0  0  0  0  0
   -4.3804    3.4038    1.6589 H   0  0  0  0  0  0  0  0  0  0  0  0
   -4.3311    1.7015    2.1571 H   0  0  0  0  0  0  0  0  0  0  0  0
   -1.5923   -0.5283   -2.7604 H   0  0  0  0  0  0  0  0  0  0  0  0
   -1.7371   -2.2890   -2.4696 H   0  0  0  0  0  0  0  0  0  0  0  0
   -4.2322   -2.0154   -2.3372 H   0  0  0  0  0  0  0  0  0  0  0  0
   -4.0549   -0.2974   -2.7139 H   0  0  0  0  0  0  0  0  0  0  0  0
   -3.5951   -1.5154   -3.9146 H   0  0  0  0  0  0  0  0  0  0  0  0
  1  2  1  0  0  0  0
  2  3  1  0  0  0  0
  3  4  2  0  0  0  0
  4  5  2  0  0  0  0
  4  6  2  0  0  0  0
  6  7  1  0  0  0  0
  7  8  1  0  0  0  0
  4  9  1  0  0  0  0
  9 10  1  0  0  0  0
 10 11  1  0  0  0  0
 11 12  1  0  0  0  0
 12 13  2  0  0  0  0
 12 14  2  0  0  0  0
 14 15  1  0  0  0  0
 15 16  1  0  0  0  0
 12 17  2  0  0  0  0
 17 18  1  0  0  0  0
 18 19  1  0  0  0  0
  1 20  1  0  0  0  0
  1 21  1  0  0  0  0
  1 22  1  0  0  0  0
  2 23  1  0  0  0  0
  2 24  1  0  0  0  0
  7 25  1  0  0  0  0
  7 26  1  0  0  0  0
  8 27  1  0  0  0  0
  8 28  1  0  0  0  0
  8 29  1  0  0  0  0
 10 30  1  0  0  0  0
 10 31  1  0  0  0  0
 15 32  1  0  0  0  0
 15 33  1  0  0  0  0
 16 34  1  0  0  0  0
 16 35  1  0  0  0  0
 16 36  1  0  0  0  0
 18 37  1  0  0  0  0
 18 38  1  0  0  0  0
 19 39  1  0  0  0  0
 19 40  1  0  0  0  0
 19 41  1  0  0  0  0
M  END
