 xtb: 6.7.1 (edcfbbe)
          04092505213D

 41 40  0     0  0            999 V2000
    3.2986    2.0464   -1.5904 C   0  0  0  0  0  0  0  0  0  0  0  0
    3.5680    1.9885   -0.0995 C   0  0  0  0  0  0  0  0  0  0  0  0
    3.5181    0.6309    0.3798 O   0  0  0  0  0  0  0  0  0  0  0  0
    2.2056   -0.0030    1.0083 P   0  0  0  0  0  0  0  0  0  0  0  0
    1.3466    1.0669    2.4017 S   0  0  0  0  0  0  0  0  0  0  0  0
    2.6987   -1.3960    1.5559 O   0  0  0  0  0  0  0  0  0  0  0  0
    3.4993   -2.3282    0.7830 C   0  0  0  0  0  0  0  0  0  0  0  0
    4.9739   -2.1381    1.0716 C   0  0  0  0  0  0  0  0  0  0  0  0
    1.0182   -0.4996   -0.7019 S   0  0  0  0  0  0  0  0  0  0  0  0
   -0.2343   -1.4754    0.1707 C   0  0  0  0  0  0  0  0  0  0  0  0
   -1.5194   -0.4806    0.9768 S   0  0  0  0  0  0  0  0  0  0  0  0
   -2.5812    0.1120   -0.7795 P   0  0  0  0  0  0  0  0  0  0  0  0
   -2.2007   -0.9485   -2.3899 S   0  0  0  0  0  0  0  0  0  0  0  0
   -2.3789    1.6704   -0.9717 O   0  0  0  0  0  0  0  0  0  0  0  0
   -1.2760    2.2541   -1.6873 C   0  0  0  0  0  0  0  0  0  0  0  0
   -0.3707    2.9989   -0.7249 C   0  0  0  0  0  0  0  0  0  0  0  0
   -4.0801    0.2310   -0.2984 O   0  0  0  0  0  0  0  0  0  0  0  0
   -4.7830   -0.7571    0.4766 C   0  0  0  0  0  0  0  0  0  0  0  0
   -4.7574   -2.1302   -0.1637 C   0  0  0  0  0  0  0  0  0  0  0  0
    4.0225    1.4377   -2.1245 H   0  0  0  0  0  0  0  0  0  0  0  0
    2.3009    1.6744   -1.8137 H   0  0  0  0  0  0  0  0  0  0  0  0
    3.3798    3.0750   -1.9268 H   0  0  0  0  0  0  0  0  0  0  0  0
    2.8483    2.5894    0.4656 H   0  0  0  0  0  0  0  0  0  0  0  0
    4.5800    2.3255    0.1323 H   0  0  0  0  0  0  0  0  0  0  0  0
    3.1572   -3.3131    1.1067 H   0  0  0  0  0  0  0  0  0  0  0  0
    3.2819   -2.1885   -0.2792 H   0  0  0  0  0  0  0  0  0  0  0  0
    5.2993   -1.1547    0.7445 H   0  0  0  0  0  0  0  0  0  0  0  0
    5.1595   -2.2319    2.1381 H   0  0  0  0  0  0  0  0  0  0  0  0
    5.5390   -2.8982    0.5411 H   0  0  0  0  0  0  0  0  0  0  0  0
    0.2359   -2.0617    0.9568 H   0  0  0  0  0  0  0  0  0  0  0  0
   -0.6949   -2.1095   -0.5873 H   0  0  0  0  0  0  0  0  0  0  0  0
   -0.7358    1.4695   -2.2299 H   0  0  0  0  0  0  0  0  0  0  0  0
   -1.7270    2.9401   -2.4075 H   0  0  0  0  0  0  0  0  0  0  0  0
    0.0715    2.3169   -0.0001 H   0  0  0  0  0  0  0  0  0  0  0  0
    0.4202    3.4898   -1.2825 H   0  0  0  0  0  0  0  0  0  0  0  0
   -0.9440    3.7435   -0.1802 H   0  0  0  0  0  0  0  0  0  0  0  0
   -4.3448   -0.7862    1.4784 H   0  0  0  0  0  0  0  0  0  0  0  0
   -5.7991   -0.3622    0.5318 H   0  0  0  0  0  0  0  0  0  0  0  0
   -5.3830   -2.8073    0.4091 H   0  0  0  0  0  0  0  0  0  0  0  0
   -5.1244   -2.0771   -1.1860 H   0  0  0  0  0  0  0  0  0  0  0  0
   -3.7393   -2.5171   -0.1828 H   0  0  0  0  0  0  0  0  0  0  0  0
  1  2  1  0  0  0  0
  2  3  1  0  0  0  0
  3  4  2  0  0  0  0
  4  5  2  0  0  0  0
  4  6  2  0  0  0  0
  6  7  1  0  0  0  0
  7  8  1  0  0  0  0
  4  9  1  0  0  0  0
  9 10  1  0  0  0  0
 10 11  1  0  0  0  0
 11 12  1  0  0  0  0
 12 13  2  0  0  0  0
 12 14  2  0  0  0  0
 14 15  1  0  0  0  0
 15 16  1  0  0  0  0
 12 17  2  0  0  0  0
 17 18  1  0  0  0  0
 18 19  1  0  0  0  0
  1 20  1  0  0  0  0
  1 21  1  0  0  0  0
  1 22  1  0  0  0  0
  2 23  1  0  0  0  0
  2 24  1  0  0  0  0
  7 25  1  0  0  0  0
  7 26  1  0  0  0  0
  8 27  1  0  0  0  0
  8 28  1  0  0  0  0
  8 29  1  0  0  0  0
 10 30  1  0  0  0  0
 10 31  1  0  0  0  0
 15 32  1  0  0  0  0
 15 33  1  0  0  0  0
 16 34  1  0  0  0  0
 16 35  1  0  0  0  0
 16 36  1  0  0  0  0
 18 37  1  0  0  0  0
 18 38  1  0  0  0  0
 19 39  1  0  0  0  0
 19 40  1  0  0  0  0
 19 41  1  0  0  0  0
M  END
