 xtb: 6.7.1 (edcfbbe)
          04092505213D

 41 40  0     0  0            999 V2000
    2.9106   -1.7274   -2.3942 C   0  0  0  0  0  0  0  0  0  0  0  0
    3.0889   -0.5043   -1.5174 C   0  0  0  0  0  0  0  0  0  0  0  0
    2.7147   -0.8285   -0.1651 O   0  0  0  0  0  0  0  0  0  0  0  0
    1.7677    0.0160    0.7961 P   0  0  0  0  0  0  0  0  0  0  0  0
    1.1679    1.7419    0.0527 S   0  0  0  0  0  0  0  0  0  0  0  0
    2.5794    0.1758    2.1548 O   0  0  0  0  0  0  0  0  0  0  0  0
    3.4022    1.3187    2.4443 C   0  0  0  0  0  0  0  0  0  0  0  0
    4.6417    1.3537    1.5728 C   0  0  0  0  0  0  0  0  0  0  0  0
    0.5168   -1.4543    1.6168 S   0  0  0  0  0  0  0  0  0  0  0  0
   -0.2638   -2.1631    0.1175 C   0  0  0  0  0  0  0  0  0  0  0  0
   -0.3681   -1.0282   -1.2907 S   0  0  0  0  0  0  0  0  0  0  0  0
   -1.9703    0.1962   -0.6902 P   0  0  0  0  0  0  0  0  0  0  0  0
   -2.3407    1.7946   -1.7573 S   0  0  0  0  0  0  0  0  0  0  0  0
   -1.6078    0.4023    0.8378 O   0  0  0  0  0  0  0  0  0  0  0  0
   -2.4039    1.2615    1.6833 C   0  0  0  0  0  0  0  0  0  0  0  0
   -1.5818    1.5869    2.9128 C   0  0  0  0  0  0  0  0  0  0  0  0
   -3.2248   -0.7872   -0.5492 O   0  0  0  0  0  0  0  0  0  0  0  0
   -4.1433   -1.0097   -1.6305 C   0  0  0  0  0  0  0  0  0  0  0  0
   -3.5076   -1.7982   -2.7577 C   0  0  0  0  0  0  0  0  0  0  0  0
    1.8578   -1.9888   -2.4704 H   0  0  0  0  0  0  0  0  0  0  0  0
    3.2933   -1.5073   -3.3854 H   0  0  0  0  0  0  0  0  0  0  0  0
    3.4600   -2.5644   -1.9734 H   0  0  0  0  0  0  0  0  0  0  0  0
    2.4778    0.3355   -1.8657 H   0  0  0  0  0  0  0  0  0  0  0  0
    4.1368   -0.1960   -1.4845 H   0  0  0  0  0  0  0  0  0  0  0  0
    2.8059    2.2257    2.2988 H   0  0  0  0  0  0  0  0  0  0  0  0
    3.6513    1.2033    3.5001 H   0  0  0  0  0  0  0  0  0  0  0  0
    4.3562    1.5316    0.5362 H   0  0  0  0  0  0  0  0  0  0  0  0
    5.2920    2.1583    1.9013 H   0  0  0  0  0  0  0  0  0  0  0  0
    5.1726    0.4075    1.6392 H   0  0  0  0  0  0  0  0  0  0  0  0
   -1.2624   -2.4836    0.4070 H   0  0  0  0  0  0  0  0  0  0  0  0
    0.3379   -3.0018   -0.2258 H   0  0  0  0  0  0  0  0  0  0  0  0
   -2.6581    2.1651    1.1182 H   0  0  0  0  0  0  0  0  0  0  0  0
   -3.3201    0.7245    1.9400 H   0  0  0  0  0  0  0  0  0  0  0  0
   -1.3073    0.6712    3.4302 H   0  0  0  0  0  0  0  0  0  0  0  0
   -0.6735    2.1098    2.6213 H   0  0  0  0  0  0  0  0  0  0  0  0
   -2.1623    2.2212    3.5743 H   0  0  0  0  0  0  0  0  0  0  0  0
   -4.9688   -1.5531   -1.1688 H   0  0  0  0  0  0  0  0  0  0  0  0
   -4.4905   -0.0366   -1.9921 H   0  0  0  0  0  0  0  0  0  0  0  0
   -3.1036   -2.7371   -2.3882 H   0  0  0  0  0  0  0  0  0  0  0  0
   -4.2545   -2.0017   -3.5182 H   0  0  0  0  0  0  0  0  0  0  0  0
   -2.7001   -1.2169   -3.2030 H   0  0  0  0  0  0  0  0  0  0  0  0
  1  2  1  0  0  0  0
  2  3  1  0  0  0  0
  3  4  2  0  0  0  0
  4  5  2  0  0  0  0
  4  6  2  0  0  0  0
  6  7  1  0  0  0  0
  7  8  1  0  0  0  0
  4  9  1  0  0  0  0
  9 10  1  0  0  0  0
 10 11  1  0  0  0  0
 11 12  1  0  0  0  0
 12 13  2  0  0  0  0
 12 14  2  0  0  0  0
 14 15  1  0  0  0  0
 15 16  1  0  0  0  0
 12 17  2  0  0  0  0
 17 18  1  0  0  0  0
 18 19  1  0  0  0  0
  1 20  1  0  0  0  0
  1 21  1  0  0  0  0
  1 22  1  0  0  0  0
  2 23  1  0  0  0  0
  2 24  1  0  0  0  0
  7 25  1  0  0  0  0
  7 26  1  0  0  0  0
  8 27  1  0  0  0  0
  8 28  1  0  0  0  0
  8 29  1  0  0  0  0
 10 30  1  0  0  0  0
 10 31  1  0  0  0  0
 15 32  1  0  0  0  0
 15 33  1  0  0  0  0
 16 34  1  0  0  0  0
 16 35  1  0  0  0  0
 16 36  1  0  0  0  0
 18 37  1  0  0  0  0
 18 38  1  0  0  0  0
 19 39  1  0  0  0  0
 19 40  1  0  0  0  0
 19 41  1  0  0  0  0
M  END
