41
 xtb: 6.7.1 (edcfbbe)
C            5.18517779002836       -0.04460883110588       -1.82916409710808
C            4.89091042069108        0.77896651832053       -0.60135287896671
O            3.82278076280784        0.18614789457158        0.21974742913950
P            2.26041313399060        0.31791329371279       -0.13760025822547
S            1.66439251569574        1.85035853123664       -1.17077771142672
O            1.56152159816132        0.28497672969119        1.30338152653548
C            1.89708784938908       -0.72850510069465        2.32157466580213
C            2.72741404945737       -0.09651814371494        3.40989887938276
S            1.96318650227207       -1.58888208461915       -1.04004912543251
C            0.21499751821291       -1.47424304539791       -1.57041838367593
S           -1.01128842959732       -1.89727531311085       -0.25197352527854
P           -2.22908962044169       -0.16614649256644       -0.20960656521631
S           -2.63080768444499        0.64317809463569       -1.93562630322335
O           -1.49964711200161        0.76103648884504        0.87728768923693
C           -1.73838263104949        2.21115744003734        0.94732948034341
C           -3.08946399573167        2.52385622924282        1.54165392951622
O           -3.46797913224545       -0.71997616524303        0.65797440024240
C           -4.55416233757288       -1.48857705445538        0.02653395933472
C           -5.80665776352393       -0.65012975997325        0.00510759416119
H            5.41964384405984       -1.07914102381646       -1.56208548260969
H            4.34710711957904       -0.03625789172545       -2.53180663889729
H            6.05597889218157        0.38633766843841       -2.33418422791272
H            4.59807182031931        1.80227596715537       -0.85307975472573
H            5.74472441383178        0.80832727308202        0.07828549661528
H            0.93189628033113       -1.07801575304724        2.69513406668080
H            2.41382032399447       -1.56843650006516        1.84825791426873
H            3.68856663820408        0.25189961177088        3.02250136384178
H            2.19833135020795        0.74484810806183        3.86603816627853
H            2.91801237841637       -0.84476245200758        4.18636592558770
H            0.10529424953506       -2.20744649158912       -2.37279840422430
H            0.00099146546055       -0.47682519749499       -1.96931891782782
H           -0.92235678636948        2.57179691551952        1.57680860831881
H           -1.62376390028502        2.62623890785722       -0.05825195004211
H           -3.20304952499185        2.05886245096445        2.52509627204956
H           -3.17690120934796        3.60889706161196        1.65990151031389
H           -3.90284658913937        2.18665078113032        0.89153179551232
H           -4.25132560772653       -1.79247736202346       -0.98015101358585
H           -4.66811426787455       -2.38155771014389        0.64554243430419
H           -6.07660435427205       -0.32836962507438        1.01500059495338
H           -5.67654866042104        0.23139177602570       -0.62880976461795
H           -6.62970079754774       -1.24924389253316       -0.39790450884836
