  20
 
 C         -2.3433931608       -1.2269449279       -0.1618566191
 N         -1.5975669674        0.0000311563       -0.0175000700
 C         -2.3437490960        1.2222868682        0.1634972211
 C         -0.2302137235       -0.0014647865       -0.0088741166
 C          0.4991650417       -1.1960580340        0.1004959332
 C          1.8789954142       -1.1889628609        0.1062776385
 C          2.5860826479       -0.0022365371        0.0071394574
 C          1.8808867395        1.1847682636       -0.1030548265
 C          0.5012173368        1.1923837617       -0.1141399621
 H         -1.8962766724       -1.8540637157       -0.9345202220
 H         -3.3599875119       -0.9904843845       -0.4666745496
 H         -2.3820122920       -1.7955880243        0.7741305378
 H         -1.8708126548        1.8483119903        0.9214574566
 H         -3.3470516745        0.9795793683        0.5060351104
 H         -2.4208517938        1.7944136756       -0.7678121651
 H         -0.0133391967       -2.1391877675        0.1982037044
 H          2.4108563470       -2.1259490769        0.1963428159
 H          3.6656911188       -0.0024273323        0.0147252020
 H          2.4143895248        2.1212601028       -0.1882728537
 H         -0.0102041686        2.1350001177       -0.2228396406
          20
        -25.64903264
 C         -2.3331405497       -1.2368243738       -0.0479620518
 N         -1.6047206035        0.0005150795        0.1146374583
 C         -2.3314041141        1.2371989051       -0.0610991557
 C         -0.2345954071       -0.0001405289        0.0420286527
 C          0.4976458558       -1.1976772629        0.0157006489
 C          1.8773226611       -1.1905329596       -0.0163291102
 C          2.5844346946       -0.0002107947       -0.0285817366
 C          1.8775895490        1.1901617184       -0.0092362959
 C          0.4979146078        1.1973942560        0.0228583628
 H         -2.0564817202       -1.9443024883        0.7357931063
 H         -2.1437512297       -1.6997909736       -1.0230736459
 H         -3.3978370744       -1.0392186524        0.0398441980
 H         -3.3974016591        1.0387215121        0.0049879350
 H         -2.1232495551        1.7003671554       -1.0321082446
 H         -2.0712467148        1.9454386293        0.7279208432
 H         -0.0086389630       -2.1485386001        0.0190567011
 H          2.4083410733       -2.1320441457       -0.0354386190
 H          3.6636754011       -0.0002550135       -0.0557408587
 H          2.4087488360        2.1316873656       -0.0228383623
 H         -0.0081837248        2.1482972134        0.0330688888
