 xtb: 6.7.1 (edcfbbe)
          04092513583D

 41 40  0     0  0            999 V2000
    5.2484   -2.3581   -1.6644 C   0  0  0  0  0  0  0  0  0  0  0  0
    4.2249   -1.2407   -1.7000 C   0  0  0  0  0  0  0  0  0  0  0  0
    3.3015   -1.4508   -0.6115 O   0  0  0  0  0  0  0  0  0  0  0  0
    2.3437   -0.3006   -0.0842 P   0  0  0  0  0  0  0  0  0  0  0  0
    3.2126    1.4241    0.2747 S   0  0  0  0  0  0  0  0  0  0  0  0
    1.6429   -1.0069    1.1471 O   0  0  0  0  0  0  0  0  0  0  0  0
    2.1058   -0.8303    2.5026 C   0  0  0  0  0  0  0  0  0  0  0  0
    3.4059   -1.5660    2.7482 C   0  0  0  0  0  0  0  0  0  0  0  0
    0.7753   -0.2848   -1.5000 S   0  0  0  0  0  0  0  0  0  0  0  0
    0.0511    1.3074   -1.0143 C   0  0  0  0  0  0  0  0  0  0  0  0
   -0.7020    1.2850    0.6334 S   0  0  0  0  0  0  0  0  0  0  0  0
   -2.6171    0.4640    0.1389 P   0  0  0  0  0  0  0  0  0  0  0  0
   -3.1177    0.6568   -1.7510 S   0  0  0  0  0  0  0  0  0  0  0  0
   -3.5953    1.1381    1.1799 O   0  0  0  0  0  0  0  0  0  0  0  0
   -4.1942    2.4289    0.9392 C   0  0  0  0  0  0  0  0  0  0  0  0
   -5.6689    2.2702    0.6235 C   0  0  0  0  0  0  0  0  0  0  0  0
   -2.6693   -0.9695    0.8029 O   0  0  0  0  0  0  0  0  0  0  0  0
   -1.7428   -2.0397    0.5507 C   0  0  0  0  0  0  0  0  0  0  0  0
   -1.9843   -2.7097   -0.7876 C   0  0  0  0  0  0  0  0  0  0  0  0
    5.8046   -2.3299   -0.7318 H   0  0  0  0  0  0  0  0  0  0  0  0
    4.7499   -3.3193   -1.7484 H   0  0  0  0  0  0  0  0  0  0  0  0
    5.9368   -2.2365   -2.4944 H   0  0  0  0  0  0  0  0  0  0  0  0
    3.6590   -1.2490   -2.6354 H   0  0  0  0  0  0  0  0  0  0  0  0
    4.6955   -0.2597   -1.5749 H   0  0  0  0  0  0  0  0  0  0  0  0
    2.2216    0.2416    2.6927 H   0  0  0  0  0  0  0  0  0  0  0  0
    1.2926   -1.2266    3.1119 H   0  0  0  0  0  0  0  0  0  0  0  0
    3.3023   -2.6137    2.4792 H   0  0  0  0  0  0  0  0  0  0  0  0
    4.1998   -1.1240    2.1477 H   0  0  0  0  0  0  0  0  0  0  0  0
    3.6707   -1.4854    3.7980 H   0  0  0  0  0  0  0  0  0  0  0  0
   -0.7120    1.5385   -1.7594 H   0  0  0  0  0  0  0  0  0  0  0  0
    0.8335    2.0649   -0.9887 H   0  0  0  0  0  0  0  0  0  0  0  0
   -4.0428    2.9937    1.8610 H   0  0  0  0  0  0  0  0  0  0  0  0
   -3.6749    2.9276    0.1151 H   0  0  0  0  0  0  0  0  0  0  0  0
   -6.1659    1.7297    1.4239 H   0  0  0  0  0  0  0  0  0  0  0  0
   -6.1192    3.2521    0.5171 H   0  0  0  0  0  0  0  0  0  0  0  0
   -5.7947    1.7183   -0.3054 H   0  0  0  0  0  0  0  0  0  0  0  0
   -0.7195   -1.6560    0.6158 H   0  0  0  0  0  0  0  0  0  0  0  0
   -1.9196   -2.7322    1.3760 H   0  0  0  0  0  0  0  0  0  0  0  0
   -1.7838   -2.0189   -1.6048 H   0  0  0  0  0  0  0  0  0  0  0  0
   -1.3204   -3.5632   -0.8818 H   0  0  0  0  0  0  0  0  0  0  0  0
   -3.0159   -3.0446   -0.8579 H   0  0  0  0  0  0  0  0  0  0  0  0
  1  2  1  0  0  0  0
  2  3  1  0  0  0  0
  3  4  2  0  0  0  0
  4  5  2  0  0  0  0
  4  6  2  0  0  0  0
  6  7  1  0  0  0  0
  7  8  1  0  0  0  0
  4  9  1  0  0  0  0
  9 10  1  0  0  0  0
 10 11  1  0  0  0  0
 11 12  1  0  0  0  0
 12 13  2  0  0  0  0
 12 14  2  0  0  0  0
 14 15  1  0  0  0  0
 15 16  1  0  0  0  0
 12 17  2  0  0  0  0
 17 18  1  0  0  0  0
 18 19  1  0  0  0  0
  1 20  1  0  0  0  0
  1 21  1  0  0  0  0
  1 22  1  0  0  0  0
  2 23  1  0  0  0  0
  2 24  1  0  0  0  0
  7 25  1  0  0  0  0
  7 26  1  0  0  0  0
  8 27  1  0  0  0  0
  8 28  1  0  0  0  0
  8 29  1  0  0  0  0
 10 30  1  0  0  0  0
 10 31  1  0  0  0  0
 15 32  1  0  0  0  0
 15 33  1  0  0  0  0
 16 34  1  0  0  0  0
 16 35  1  0  0  0  0
 16 36  1  0  0  0  0
 18 37  1  0  0  0  0
 18 38  1  0  0  0  0
 19 39  1  0  0  0  0
 19 40  1  0  0  0  0
 19 41  1  0  0  0  0
M  END
