 xtb: 6.7.1 (edcfbbe)
          04092509483D

 38 37  0     0  0            999 V2000
    3.0289   -4.2322    0.6981 C   0  0  0  0  0  0  0  0  0  0  0  0
    2.3109   -3.3792   -0.3355 C   0  0  0  0  0  0  0  0  0  0  0  0
    2.4663   -1.9790   -0.0381 O   0  0  0  0  0  0  0  0  0  0  0  0
    1.5907   -1.3907    0.7463 C   0  0  0  0  0  0  0  0  0  0  0  0
    0.6251   -1.9352    1.2429 O   0  0  0  0  0  0  0  0  0  0  0  0
    1.9037    0.0780    0.9296 C   0  0  0  0  0  0  0  0  0  0  0  0
    0.8405    0.9121    0.2226 C   0  0  0  0  0  0  0  0  0  0  0  0
    0.7248    0.6003   -0.8244 H   0  0  0  0  0  0  0  0  0  0  0  0
    1.1793    2.3979    0.2620 C   0  0  0  0  0  0  0  0  0  0  0  0
    2.1326    2.8462    0.8522 O   0  0  0  0  0  0  0  0  0  0  0  0
    0.3012    3.1025   -0.4161 O   0  0  0  0  0  0  0  0  0  0  0  0
    0.4723    4.5358   -0.4614 C   0  0  0  0  0  0  0  0  0  0  0  0
    1.3787    4.9433   -1.6113 C   0  0  0  0  0  0  0  0  0  0  0  0
   -0.8079    0.7278    0.9962 S   0  0  0  0  0  0  0  0  0  0  0  0
   -1.6808   -0.7282   -0.2916 P   0  0  0  0  0  0  0  0  0  0  0  0
   -0.7012   -1.1512   -1.9299 S   0  0  0  0  0  0  0  0  0  0  0  0
   -2.0666   -2.0093    0.5385 O   0  0  0  0  0  0  0  0  0  0  0  0
   -2.6411   -1.9262    1.8569 C   0  0  0  0  0  0  0  0  0  0  0  0
   -3.1472   -0.1189   -0.5293 O   0  0  0  0  0  0  0  0  0  0  0  0
   -3.3644    1.0752   -1.2873 C   0  0  0  0  0  0  0  0  0  0  0  0
    2.9641   -5.2756    0.4079 H   0  0  0  0  0  0  0  0  0  0  0  0
    4.0739   -3.9408    0.7590 H   0  0  0  0  0  0  0  0  0  0  0  0
    2.5674   -4.1073    1.6749 H   0  0  0  0  0  0  0  0  0  0  0  0
    1.2423   -3.6131   -0.3701 H   0  0  0  0  0  0  0  0  0  0  0  0
    2.7504   -3.4974   -1.3263 H   0  0  0  0  0  0  0  0  0  0  0  0
    2.8802    0.3011    0.5005 H   0  0  0  0  0  0  0  0  0  0  0  0
    1.9057    0.3225    1.9931 H   0  0  0  0  0  0  0  0  0  0  0  0
   -0.5368    4.9255   -0.5929 H   0  0  0  0  0  0  0  0  0  0  0  0
    0.8882    4.8628    0.4953 H   0  0  0  0  0  0  0  0  0  0  0  0
    0.9798    4.5780   -2.5536 H   0  0  0  0  0  0  0  0  0  0  0  0
    1.4436    6.0259   -1.6457 H   0  0  0  0  0  0  0  0  0  0  0  0
    2.3764    4.5354   -1.4663 H   0  0  0  0  0  0  0  0  0  0  0  0
   -2.9621   -2.9376    2.0908 H   0  0  0  0  0  0  0  0  0  0  0  0
   -3.4852   -1.2390    1.8586 H   0  0  0  0  0  0  0  0  0  0  0  0
   -1.8752   -1.5962    2.5580 H   0  0  0  0  0  0  0  0  0  0  0  0
   -4.4407    1.2310   -1.2810 H   0  0  0  0  0  0  0  0  0  0  0  0
   -3.0038    0.9417   -2.3078 H   0  0  0  0  0  0  0  0  0  0  0  0
   -2.8523    1.9167   -0.8198 H   0  0  0  0  0  0  0  0  0  0  0  0
  1  2  1  0  0  0  0
  2  3  1  0  0  0  0
  3  4  4  0  0  0  0
  4  5  2  0  0  0  0
  4  6  1  0  0  0  0
  6  7  1  0  0  0  0
  7  8  1  0  0  0  0
  7  9  1  0  0  0  0
  9 10  2  0  0  0  0
  9 11  1  0  0  0  0
 11 12  1  0  0  0  0
 12 13  1  0  0  0  0
  7 14  1  0  0  0  0
 14 15  1  0  0  0  0
 15 16  2  0  0  0  0
 15 17  2  0  0  0  0
 17 18  1  0  0  0  0
 15 19  1  0  0  0  0
 19 20  1  0  0  0  0
  1 21  1  0  0  0  0
  1 22  1  0  0  0  0
  1 23  1  0  0  0  0
  2 24  1  0  0  0  0
  2 25  1  0  0  0  0
  6 26  1  0  0  0  0
  6 27  1  0  0  0  0
 12 28  1  0  0  0  0
 12 29  1  0  0  0  0
 13 30  1  0  0  0  0
 13 31  1  0  0  0  0
 13 32  1  0  0  0  0
 18 33  1  0  0  0  0
 18 34  1  0  0  0  0
 18 35  1  0  0  0  0
 20 36  1  0  0  0  0
 20 37  1  0  0  0  0
 20 38  1  0  0  0  0
M  END
