 xtb: 6.7.1 (edcfbbe)
          04092505203D

 41 40  0     0  0            999 V2000
    5.5177   -1.1054   -1.4112 C   0  0  0  0  0  0  0  0  0  0  0  0
    4.0990   -1.3251   -1.8996 C   0  0  0  0  0  0  0  0  0  0  0  0
    3.2028   -1.5300   -0.7876 O   0  0  0  0  0  0  0  0  0  0  0  0
    2.3509   -0.3481   -0.1510 P   0  0  0  0  0  0  0  0  0  0  0  0
    3.3407    1.2703    0.3578 S   0  0  0  0  0  0  0  0  0  0  0  0
    1.6218   -1.1057    1.0278 O   0  0  0  0  0  0  0  0  0  0  0  0
    2.1382   -1.1106    2.3827 C   0  0  0  0  0  0  0  0  0  0  0  0
    0.9947   -0.9018    3.3540 C   0  0  0  0  0  0  0  0  0  0  0  0
    0.8004   -0.0678   -1.5566 S   0  0  0  0  0  0  0  0  0  0  0  0
    0.1864    1.4937   -0.8645 C   0  0  0  0  0  0  0  0  0  0  0  0
   -0.7745    1.2589    0.6447 S   0  0  0  0  0  0  0  0  0  0  0  0
   -2.4340    0.3070   -0.3101 P   0  0  0  0  0  0  0  0  0  0  0  0
   -2.9402    1.0269   -2.0542 S   0  0  0  0  0  0  0  0  0  0  0  0
   -3.5628    0.3101    0.8082 O   0  0  0  0  0  0  0  0  0  0  0  0
   -4.4871    1.4015    0.9760 C   0  0  0  0  0  0  0  0  0  0  0  0
   -3.8014    2.6776    1.4182 C   0  0  0  0  0  0  0  0  0  0  0  0
   -2.0389   -1.2167   -0.3962 O   0  0  0  0  0  0  0  0  0  0  0  0
   -1.7110   -2.0178    0.7652 C   0  0  0  0  0  0  0  0  0  0  0  0
   -2.8861   -2.8912    1.1525 C   0  0  0  0  0  0  0  0  0  0  0  0
    5.5763   -0.1927   -0.8223 H   0  0  0  0  0  0  0  0  0  0  0  0
    5.8334   -1.9421   -0.7946 H   0  0  0  0  0  0  0  0  0  0  0  0
    6.1803   -1.0177   -2.2661 H   0  0  0  0  0  0  0  0  0  0  0  0
    4.0176   -2.2382   -2.4920 H   0  0  0  0  0  0  0  0  0  0  0  0
    3.7508   -0.4749   -2.4932 H   0  0  0  0  0  0  0  0  0  0  0  0
    2.6225   -2.0772    2.5329 H   0  0  0  0  0  0  0  0  0  0  0  0
    2.8823   -0.3124    2.4761 H   0  0  0  0  0  0  0  0  0  0  0  0
    0.2773   -1.7130    3.2724 H   0  0  0  0  0  0  0  0  0  0  0  0
    1.3934   -0.8777    4.3631 H   0  0  0  0  0  0  0  0  0  0  0  0
    0.4957    0.0418    3.1460 H   0  0  0  0  0  0  0  0  0  0  0  0
   -0.4469    1.9455   -1.6284 H   0  0  0  0  0  0  0  0  0  0  0  0
    1.0319    2.1352   -0.6130 H   0  0  0  0  0  0  0  0  0  0  0  0
   -5.0117    1.5554    0.0284 H   0  0  0  0  0  0  0  0  0  0  0  0
   -5.1836    1.0366    1.7321 H   0  0  0  0  0  0  0  0  0  0  0  0
   -3.1843    2.4941    2.2942 H   0  0  0  0  0  0  0  0  0  0  0  0
   -3.1703    3.0594    0.6171 H   0  0  0  0  0  0  0  0  0  0  0  0
   -4.5536    3.4229    1.6563 H   0  0  0  0  0  0  0  0  0  0  0  0
   -0.8479   -2.6131    0.4586 H   0  0  0  0  0  0  0  0  0  0  0  0
   -1.4251   -1.3517    1.5835 H   0  0  0  0  0  0  0  0  0  0  0  0
   -3.7273   -2.2736    1.4559 H   0  0  0  0  0  0  0  0  0  0  0  0
   -3.1875   -3.5043    0.3077 H   0  0  0  0  0  0  0  0  0  0  0  0
   -2.5960   -3.5345    1.9774 H   0  0  0  0  0  0  0  0  0  0  0  0
  1  2  1  0  0  0  0
  2  3  1  0  0  0  0
  3  4  2  0  0  0  0
  4  5  2  0  0  0  0
  4  6  2  0  0  0  0
  6  7  1  0  0  0  0
  7  8  1  0  0  0  0
  4  9  1  0  0  0  0
  9 10  1  0  0  0  0
 10 11  1  0  0  0  0
 11 12  1  0  0  0  0
 12 13  2  0  0  0  0
 12 14  2  0  0  0  0
 14 15  1  0  0  0  0
 15 16  1  0  0  0  0
 12 17  2  0  0  0  0
 17 18  1  0  0  0  0
 18 19  1  0  0  0  0
  1 20  1  0  0  0  0
  1 21  1  0  0  0  0
  1 22  1  0  0  0  0
  2 23  1  0  0  0  0
  2 24  1  0  0  0  0
  7 25  1  0  0  0  0
  7 26  1  0  0  0  0
  8 27  1  0  0  0  0
  8 28  1  0  0  0  0
  8 29  1  0  0  0  0
 10 30  1  0  0  0  0
 10 31  1  0  0  0  0
 15 32  1  0  0  0  0
 15 33  1  0  0  0  0
 16 34  1  0  0  0  0
 16 35  1  0  0  0  0
 16 36  1  0  0  0  0
 18 37  1  0  0  0  0
 18 38  1  0  0  0  0
 19 39  1  0  0  0  0
 19 40  1  0  0  0  0
 19 41  1  0  0  0  0
M  END
