 xtb: 6.7.1 (edcfbbe)
          04092505213D

 41 40  0     0  0            999 V2000
    3.8934    0.6083   -2.6868 C   0  0  0  0  0  0  0  0  0  0  0  0
    2.5377    0.4357   -2.0330 C   0  0  0  0  0  0  0  0  0  0  0  0
    2.7151   -0.3379   -0.8335 O   0  0  0  0  0  0  0  0  0  0  0  0
    1.9083   -0.1127    0.5120 P   0  0  0  0  0  0  0  0  0  0  0  0
    1.4685    1.7484    0.9169 S   0  0  0  0  0  0  0  0  0  0  0  0
    2.8588   -0.6774    1.6370 O   0  0  0  0  0  0  0  0  0  0  0  0
    3.2687   -2.0511    1.8437 C   0  0  0  0  0  0  0  0  0  0  0  0
    4.0485   -2.6149    0.6756 C   0  0  0  0  0  0  0  0  0  0  0  0
    0.3672   -1.5903    0.3750 S   0  0  0  0  0  0  0  0  0  0  0  0
   -0.5576   -1.1799    1.8717 C   0  0  0  0  0  0  0  0  0  0  0  0
   -1.5303    0.3687    1.7810 S   0  0  0  0  0  0  0  0  0  0  0  0
   -2.0982    0.3941   -0.2475 P   0  0  0  0  0  0  0  0  0  0  0  0
   -0.8681    0.7634   -1.7407 S   0  0  0  0  0  0  0  0  0  0  0  0
   -3.3054    1.4327   -0.2297 O   0  0  0  0  0  0  0  0  0  0  0  0
   -3.1226    2.8339   -0.4875 C   0  0  0  0  0  0  0  0  0  0  0  0
   -2.3368    3.5122    0.6164 C   0  0  0  0  0  0  0  0  0  0  0  0
   -2.8538   -0.9936   -0.2948 O   0  0  0  0  0  0  0  0  0  0  0  0
   -3.2733   -1.6137   -1.5343 C   0  0  0  0  0  0  0  0  0  0  0  0
   -2.3115   -2.7180   -1.9243 C   0  0  0  0  0  0  0  0  0  0  0  0
    4.5594    1.1548   -2.0244 H   0  0  0  0  0  0  0  0  0  0  0  0
    4.3273   -0.3631   -2.9050 H   0  0  0  0  0  0  0  0  0  0  0  0
    3.7708    1.1645   -3.6102 H   0  0  0  0  0  0  0  0  0  0  0  0
    1.8418   -0.1031   -2.6808 H   0  0  0  0  0  0  0  0  0  0  0  0
    2.0916    1.4016   -1.7734 H   0  0  0  0  0  0  0  0  0  0  0  0
    3.8807   -1.9904    2.7450 H   0  0  0  0  0  0  0  0  0  0  0  0
    2.3778   -2.6541    2.0375 H   0  0  0  0  0  0  0  0  0  0  0  0
    3.4066   -2.7055   -0.1975 H   0  0  0  0  0  0  0  0  0  0  0  0
    4.8842   -1.9647    0.4314 H   0  0  0  0  0  0  0  0  0  0  0  0
    4.4243   -3.5975    0.9441 H   0  0  0  0  0  0  0  0  0  0  0  0
    0.1224   -1.0485    2.7123 H   0  0  0  0  0  0  0  0  0  0  0  0
   -1.2408   -2.0090    2.0407 H   0  0  0  0  0  0  0  0  0  0  0  0
   -2.6097    2.9465   -1.4487 H   0  0  0  0  0  0  0  0  0  0  0  0
   -4.1388    3.2234   -0.5591 H   0  0  0  0  0  0  0  0  0  0  0  0
   -2.8003    3.3244    1.5819 H   0  0  0  0  0  0  0  0  0  0  0  0
   -1.3149    3.1296    0.6415 H   0  0  0  0  0  0  0  0  0  0  0  0
   -2.3018    4.5812    0.4331 H   0  0  0  0  0  0  0  0  0  0  0  0
   -4.2703   -2.0030   -1.3233 H   0  0  0  0  0  0  0  0  0  0  0  0
   -3.3325   -0.8517   -2.3162 H   0  0  0  0  0  0  0  0  0  0  0  0
   -1.3299   -2.3004   -2.1363 H   0  0  0  0  0  0  0  0  0  0  0  0
   -2.2157   -3.4364   -1.1154 H   0  0  0  0  0  0  0  0  0  0  0  0
   -2.6844   -3.2184   -2.8120 H   0  0  0  0  0  0  0  0  0  0  0  0
  1  2  1  0  0  0  0
  2  3  1  0  0  0  0
  3  4  2  0  0  0  0
  4  5  2  0  0  0  0
  4  6  2  0  0  0  0
  6  7  1  0  0  0  0
  7  8  1  0  0  0  0
  4  9  1  0  0  0  0
  9 10  1  0  0  0  0
 10 11  1  0  0  0  0
 11 12  1  0  0  0  0
 12 13  2  0  0  0  0
 12 14  2  0  0  0  0
 14 15  1  0  0  0  0
 15 16  1  0  0  0  0
 12 17  2  0  0  0  0
 17 18  1  0  0  0  0
 18 19  1  0  0  0  0
  1 20  1  0  0  0  0
  1 21  1  0  0  0  0
  1 22  1  0  0  0  0
  2 23  1  0  0  0  0
  2 24  1  0  0  0  0
  7 25  1  0  0  0  0
  7 26  1  0  0  0  0
  8 27  1  0  0  0  0
  8 28  1  0  0  0  0
  8 29  1  0  0  0  0
 10 30  1  0  0  0  0
 10 31  1  0  0  0  0
 15 32  1  0  0  0  0
 15 33  1  0  0  0  0
 16 34  1  0  0  0  0
 16 35  1  0  0  0  0
 16 36  1  0  0  0  0
 18 37  1  0  0  0  0
 18 38  1  0  0  0  0
 19 39  1  0  0  0  0
 19 40  1  0  0  0  0
 19 41  1  0  0  0  0
M  END
