 xtb: 6.7.1 (edcfbbe)
          04032520193D

 20 20  0     0  0            999 V2000
    0.5960    1.7074   -0.0673 C   0  0  0  0  0  0  0  0  0  0  0  0
    1.3935    0.4113   -0.2671 C   0  0  0  0  0  0  0  0  0  0  0  0
    1.6002    0.2647   -1.3384 H   0  0  0  0  0  0  0  0  0  0  0  0
    0.5466   -0.7735    0.2180 C   0  0  0  0  0  0  0  0  0  0  0  0
    0.3649   -0.6664    1.2975 H   0  0  0  0  0  0  0  0  0  0  0  0
   -0.7968   -0.7505   -0.5151 C   0  0  0  0  0  0  0  0  0  0  0  0
   -0.5996   -0.8262   -1.5976 H   0  0  0  0  0  0  0  0  0  0  0  0
   -1.4836    0.6014   -0.2594 C   0  0  0  0  0  0  0  0  0  0  0  0
   -2.3911    0.6595   -0.8741 H   0  0  0  0  0  0  0  0  0  0  0  0
   -0.6657    1.6543   -0.7187 O   0  0  0  0  0  0  0  0  0  0  0  0
   -1.7664    0.7171    1.0941 O   0  0  0  0  0  0  0  0  0  0  0  0
   -1.6538   -1.7790   -0.1070 O   0  0  0  0  0  0  0  0  0  0  0  0
    1.1659   -2.0077   -0.0559 O   0  0  0  0  0  0  0  0  0  0  0  0
    2.5881    0.4037    0.4777 O   0  0  0  0  0  0  0  0  0  0  0  0
    1.1049    2.5630   -0.5115 H   0  0  0  0  0  0  0  0  0  0  0  0
    0.4595    1.8703    1.0089 H   0  0  0  0  0  0  0  0  0  0  0  0
   -2.4131    1.4228    1.2459 H   0  0  0  0  0  0  0  0  0  0  0  0
   -1.1362   -2.5989   -0.0686 H   0  0  0  0  0  0  0  0  0  0  0  0
    2.0525   -1.9943    0.3337 H   0  0  0  0  0  0  0  0  0  0  0  0
    3.1798    1.1014    0.1633 H   0  0  0  0  0  0  0  0  0  0  0  0
  1  2  1  0  0  0  0
  2  3  1  0  0  0  0
  2  4  1  0  0  0  0
  4  5  1  0  0  0  0
  4  6  1  0  0  0  0
  6  7  1  0  0  0  0
  6  8  1  0  0  0  0
  8  9  1  0  0  0  0
  1 10  1  0  0  0  0
  8 10  1  0  0  0  0
  8 11  1  0  0  0  0
  6 12  1  0  0  0  0
  4 13  1  0  0  0  0
  2 14  1  0  0  0  0
  1 15  1  0  0  0  0
  1 16  1  0  0  0  0
 11 17  1  0  0  0  0
 12 18  1  0  0  0  0
 13 19  1  0  0  0  0
 14 20  1  0  0  0  0
M  END
