 xtb: 6.7.1 (edcfbbe)
          04092505213D

 41 40  0     0  0            999 V2000
    5.4840   -1.0091   -0.6330 C   0  0  0  0  0  0  0  0  0  0  0  0
    4.1810   -1.4471   -1.2673 C   0  0  0  0  0  0  0  0  0  0  0  0
    3.2205   -0.3696   -1.3535 O   0  0  0  0  0  0  0  0  0  0  0  0
    2.6477    0.4143   -0.0970 P   0  0  0  0  0  0  0  0  0  0  0  0
    3.7325    1.8354    0.7037 S   0  0  0  0  0  0  0  0  0  0  0  0
    2.2878   -0.7896    0.8873 O   0  0  0  0  0  0  0  0  0  0  0  0
    2.1736   -0.6012    2.3062 C   0  0  0  0  0  0  0  0  0  0  0  0
    0.9312    0.1807    2.6777 C   0  0  0  0  0  0  0  0  0  0  0  0
    0.8530    1.1069   -0.9719 S   0  0  0  0  0  0  0  0  0  0  0  0
    0.1935   -0.4614   -1.6218 C   0  0  0  0  0  0  0  0  0  0  0  0
   -0.6724   -1.4540   -0.3817 S   0  0  0  0  0  0  0  0  0  0  0  0
   -2.3423   -0.1788   -0.1907 P   0  0  0  0  0  0  0  0  0  0  0  0
   -2.9927    0.6439   -1.8535 S   0  0  0  0  0  0  0  0  0  0  0  0
   -1.8555    0.8073    0.9446 O   0  0  0  0  0  0  0  0  0  0  0  0
   -2.4140    2.1258    1.1071 C   0  0  0  0  0  0  0  0  0  0  0  0
   -3.8432    2.0636    1.6020 C   0  0  0  0  0  0  0  0  0  0  0  0
   -3.4011   -1.0710    0.5853 O   0  0  0  0  0  0  0  0  0  0  0  0
   -4.1828   -2.0773   -0.0905 C   0  0  0  0  0  0  0  0  0  0  0  0
   -5.3763   -2.4048    0.7841 C   0  0  0  0  0  0  0  0  0  0  0  0
    5.8966   -0.1558   -1.1663 H   0  0  0  0  0  0  0  0  0  0  0  0
    5.3193   -0.7171    0.4034 H   0  0  0  0  0  0  0  0  0  0  0  0
    6.1935   -1.8300   -0.6629 H   0  0  0  0  0  0  0  0  0  0  0  0
    3.7282   -2.2668   -0.7047 H   0  0  0  0  0  0  0  0  0  0  0  0
    4.3241   -1.7417   -2.3085 H   0  0  0  0  0  0  0  0  0  0  0  0
    2.1485   -1.6152    2.7070 H   0  0  0  0  0  0  0  0  0  0  0  0
    3.0681   -0.0764    2.6575 H   0  0  0  0  0  0  0  0  0  0  0  0
    0.0368   -0.3193    2.3143 H   0  0  0  0  0  0  0  0  0  0  0  0
    0.8749    0.2774    3.7571 H   0  0  0  0  0  0  0  0  0  0  0  0
    0.9808    1.1765    2.2358 H   0  0  0  0  0  0  0  0  0  0  0  0
    1.0065   -1.0629   -2.0165 H   0  0  0  0  0  0  0  0  0  0  0  0
   -0.5114   -0.1827   -2.4061 H   0  0  0  0  0  0  0  0  0  0  0  0
   -1.7516    2.6054    1.8288 H   0  0  0  0  0  0  0  0  0  0  0  0
   -2.3538    2.6497    0.1476 H   0  0  0  0  0  0  0  0  0  0  0  0
   -4.2032    3.0691    1.7956 H   0  0  0  0  0  0  0  0  0  0  0  0
   -4.4741    1.6010    0.8436 H   0  0  0  0  0  0  0  0  0  0  0  0
   -3.8987    1.4747    2.5136 H   0  0  0  0  0  0  0  0  0  0  0  0
   -4.4933   -1.6829   -1.0639 H   0  0  0  0  0  0  0  0  0  0  0  0
   -3.5486   -2.9541   -0.2454 H   0  0  0  0  0  0  0  0  0  0  0  0
   -5.9983   -1.5242    0.9167 H   0  0  0  0  0  0  0  0  0  0  0  0
   -5.9605   -3.1869    0.3106 H   0  0  0  0  0  0  0  0  0  0  0  0
   -5.0379   -2.7466    1.7578 H   0  0  0  0  0  0  0  0  0  0  0  0
  1  2  1  0  0  0  0
  2  3  1  0  0  0  0
  3  4  2  0  0  0  0
  4  5  2  0  0  0  0
  4  6  2  0  0  0  0
  6  7  1  0  0  0  0
  7  8  1  0  0  0  0
  4  9  1  0  0  0  0
  9 10  1  0  0  0  0
 10 11  1  0  0  0  0
 11 12  1  0  0  0  0
 12 13  2  0  0  0  0
 12 14  2  0  0  0  0
 14 15  1  0  0  0  0
 15 16  1  0  0  0  0
 12 17  2  0  0  0  0
 17 18  1  0  0  0  0
 18 19  1  0  0  0  0
  1 20  1  0  0  0  0
  1 21  1  0  0  0  0
  1 22  1  0  0  0  0
  2 23  1  0  0  0  0
  2 24  1  0  0  0  0
  7 25  1  0  0  0  0
  7 26  1  0  0  0  0
  8 27  1  0  0  0  0
  8 28  1  0  0  0  0
  8 29  1  0  0  0  0
 10 30  1  0  0  0  0
 10 31  1  0  0  0  0
 15 32  1  0  0  0  0
 15 33  1  0  0  0  0
 16 34  1  0  0  0  0
 16 35  1  0  0  0  0
 16 36  1  0  0  0  0
 18 37  1  0  0  0  0
 18 38  1  0  0  0  0
 19 39  1  0  0  0  0
 19 40  1  0  0  0  0
 19 41  1  0  0  0  0
M  END
