  22
 
 C          2.7785428947       -1.3914014131       -0.0006072881
 C          1.5820188728       -0.6979381343       -0.0004432014
 C          1.5819756219        0.6982368080       -0.0000810827
 C          2.7784394106        1.3917985215        0.0001632510
 C          3.9803024625        0.6952943020        0.0000195478
 C          3.9803411077       -0.6948009693       -0.0003851740
 Cl         5.4667756634       -1.5685572565       -0.0006177149
 Cl         5.4666626457        1.5691356565        0.0003461757
 O          0.4135170344        1.4243920075        0.0000442778
 C         -0.7396771067        0.6991546390       -0.0000617392
 C         -0.7396296864       -0.6990083474       -0.0003604449
 C         -1.9475104142       -1.3892492479       -0.0003787298
 C         -3.1584928193       -0.6952544864       -0.0001258446
 C         -3.1585373931        0.6952403469        0.0001213466
 C         -1.9476045168        1.3893217126        0.0001551797
 Cl        -1.9191072688        3.1043009082        0.0004585917
 Cl        -4.6388033663        1.5599137711        0.0004022356
 Cl        -4.6386922168       -1.5600248111       -0.0001180217
 Cl        -1.9189020896       -3.1042342535       -0.0007150480
 O          0.4136169877       -1.4241676969       -0.0006377885
 H          2.7629492462       -2.4681134866       -0.0009139574
 H          2.7627461350        2.4685047226        0.0004611653
          22
        -62.18752134
 C          2.7749666235       -1.3915985455       -0.0001369018
 C          1.5784664928       -0.6980940262       -0.0001485677
 C          1.5784713402        0.6980809621       -0.0000812133
 C          2.7749590194        1.3916014917        0.0000460401
 C          3.9767980748        0.6950558522        0.0000788624
 C          3.9767888323       -0.6950394741       -0.0000323788
 Cl         5.4631932859       -1.5688469998       -0.0000439926
 Cl         5.4631883580        1.5688460488        0.0002574593
 O          0.4100377713        1.4242764262       -0.0001378190
 C         -0.7431813552        0.6990787809       -0.0001190069
 C         -0.7431821032       -0.6990842383       -0.0001225285
 C         -1.9510866127       -1.3892835139       -0.0000247142
 C         -3.1620451103       -0.6952469951        0.0000519516
 C         -3.1620417788        0.6952478601        0.0000055777
 C         -1.9510849889        1.3892874990       -0.0000774244
 Cl        -1.9225286564        3.1042657377       -0.0001353832
 Cl        -4.6422779640        1.5599723208        0.0000676085
 Cl        -4.6422743035       -1.5599663037        0.0002060415
 Cl        -1.9225373720       -3.1042695368        0.0000017403
 O          0.4100395903       -1.4242833604       -0.0002184893
 H          2.7593358829       -2.4683101219       -0.0002166360
 H          2.7593028359        2.4683082717        0.0001162531
