 xtb: 6.7.1 (edcfbbe)
          04092505213D

 41 40  0     0  0            999 V2000
    4.2563    0.5118   -2.2657 C   0  0  0  0  0  0  0  0  0  0  0  0
    4.4114   -0.2845   -0.9851 C   0  0  0  0  0  0  0  0  0  0  0  0
    3.6056    0.2947    0.0742 O   0  0  0  0  0  0  0  0  0  0  0  0
    2.2588   -0.3179    0.6082 P   0  0  0  0  0  0  0  0  0  0  0  0
    1.6147    0.7132    2.1384 S   0  0  0  0  0  0  0  0  0  0  0  0
    2.6529   -1.8384    0.8544 O   0  0  0  0  0  0  0  0  0  0  0  0
    1.7099   -2.8427    1.2784 C   0  0  0  0  0  0  0  0  0  0  0  0
    1.5954   -2.8888    2.7896 C   0  0  0  0  0  0  0  0  0  0  0  0
    0.9498   -0.5069   -1.0769 S   0  0  0  0  0  0  0  0  0  0  0  0
    0.5320    1.2447   -1.2764 C   0  0  0  0  0  0  0  0  0  0  0  0
   -0.7639    1.8361   -0.1490 S   0  0  0  0  0  0  0  0  0  0  0  0
   -2.1972    0.3182   -0.5958 P   0  0  0  0  0  0  0  0  0  0  0  0
   -2.2698   -0.3061   -2.4449 S   0  0  0  0  0  0  0  0  0  0  0  0
   -3.5507    0.9205   -0.0166 O   0  0  0  0  0  0  0  0  0  0  0  0
   -4.4371    1.7331   -0.8078 C   0  0  0  0  0  0  0  0  0  0  0  0
   -3.8166    3.0615   -1.1881 C   0  0  0  0  0  0  0  0  0  0  0  0
   -1.9039   -0.8513    0.4233 O   0  0  0  0  0  0  0  0  0  0  0  0
   -1.9483   -0.6918    1.8674 C   0  0  0  0  0  0  0  0  0  0  0  0
   -2.2543   -2.0467    2.4697 C   0  0  0  0  0  0  0  0  0  0  0  0
    4.9651    0.1404   -2.9991 H   0  0  0  0  0  0  0  0  0  0  0  0
    3.2505    0.4069   -2.6657 H   0  0  0  0  0  0  0  0  0  0  0  0
    4.4571    1.5632   -2.0781 H   0  0  0  0  0  0  0  0  0  0  0  0
    5.4337   -0.2320   -0.6078 H   0  0  0  0  0  0  0  0  0  0  0  0
    4.1236   -1.3275   -1.1252 H   0  0  0  0  0  0  0  0  0  0  0  0
    0.7416   -2.6447    0.8088 H   0  0  0  0  0  0  0  0  0  0  0  0
    2.1167   -3.7760    0.8836 H   0  0  0  0  0  0  0  0  0  0  0  0
    1.1959   -1.9516    3.1703 H   0  0  0  0  0  0  0  0  0  0  0  0
    0.9352   -3.7016    3.0755 H   0  0  0  0  0  0  0  0  0  0  0  0
    2.5752   -3.0516    3.2301 H   0  0  0  0  0  0  0  0  0  0  0  0
    0.1827    1.3485   -2.3027 H   0  0  0  0  0  0  0  0  0  0  0  0
    1.4081    1.8623   -1.0878 H   0  0  0  0  0  0  0  0  0  0  0  0
   -4.7136    1.1676   -1.7029 H   0  0  0  0  0  0  0  0  0  0  0  0
   -5.3091    1.8640   -0.1654 H   0  0  0  0  0  0  0  0  0  0  0  0
   -2.9949    2.9018   -1.8846 H   0  0  0  0  0  0  0  0  0  0  0  0
   -4.5670    3.6827   -1.6663 H   0  0  0  0  0  0  0  0  0  0  0  0
   -3.4350    3.5691   -0.3055 H   0  0  0  0  0  0  0  0  0  0  0  0
   -0.9738   -0.3137    2.1919 H   0  0  0  0  0  0  0  0  0  0  0  0
   -2.7171    0.0406    2.1185 H   0  0  0  0  0  0  0  0  0  0  0  0
   -2.2403   -1.9622    3.5514 H   0  0  0  0  0  0  0  0  0  0  0  0
   -3.2335   -2.3874    2.1450 H   0  0  0  0  0  0  0  0  0  0  0  0
   -1.5096   -2.7727    2.1561 H   0  0  0  0  0  0  0  0  0  0  0  0
  1  2  1  0  0  0  0
  2  3  1  0  0  0  0
  3  4  2  0  0  0  0
  4  5  2  0  0  0  0
  4  6  2  0  0  0  0
  6  7  1  0  0  0  0
  7  8  1  0  0  0  0
  4  9  1  0  0  0  0
  9 10  1  0  0  0  0
 10 11  1  0  0  0  0
 11 12  1  0  0  0  0
 12 13  2  0  0  0  0
 12 14  2  0  0  0  0
 14 15  1  0  0  0  0
 15 16  1  0  0  0  0
 12 17  2  0  0  0  0
 17 18  1  0  0  0  0
 18 19  1  0  0  0  0
  1 20  1  0  0  0  0
  1 21  1  0  0  0  0
  1 22  1  0  0  0  0
  2 23  1  0  0  0  0
  2 24  1  0  0  0  0
  7 25  1  0  0  0  0
  7 26  1  0  0  0  0
  8 27  1  0  0  0  0
  8 28  1  0  0  0  0
  8 29  1  0  0  0  0
 10 30  1  0  0  0  0
 10 31  1  0  0  0  0
 15 32  1  0  0  0  0
 15 33  1  0  0  0  0
 16 34  1  0  0  0  0
 16 35  1  0  0  0  0
 16 36  1  0  0  0  0
 18 37  1  0  0  0  0
 18 38  1  0  0  0  0
 19 39  1  0  0  0  0
 19 40  1  0  0  0  0
 19 41  1  0  0  0  0
M  END
