 xtb: 6.7.1 (edcfbbe)
          04092509473D

 38 37  0     0  0            999 V2000
    3.7849   -3.7291   -0.5203 C   0  0  0  0  0  0  0  0  0  0  0  0
    4.2923   -2.4367   -1.1395 C   0  0  0  0  0  0  0  0  0  0  0  0
    3.2412   -1.7383   -1.8375 O   0  0  0  0  0  0  0  0  0  0  0  0
    2.4323   -0.9586   -1.1522 C   0  0  0  0  0  0  0  0  0  0  0  0
    2.4932   -0.7749    0.0454 O   0  0  0  0  0  0  0  0  0  0  0  0
    1.4212   -0.2798   -2.0540 C   0  0  0  0  0  0  0  0  0  0  0  0
    0.3377    0.3849   -1.2159 C   0  0  0  0  0  0  0  0  0  0  0  0
   -0.3126    1.0045   -1.8445 H   0  0  0  0  0  0  0  0  0  0  0  0
    0.9706    1.3072   -0.1858 C   0  0  0  0  0  0  0  0  0  0  0  0
    1.8716    2.0611   -0.4786 O   0  0  0  0  0  0  0  0  0  0  0  0
    0.3778    1.2540    0.9882 O   0  0  0  0  0  0  0  0  0  0  0  0
    0.8755    2.1010    2.0462 C   0  0  0  0  0  0  0  0  0  0  0  0
    1.8424    1.3380    2.9359 C   0  0  0  0  0  0  0  0  0  0  0  0
   -0.7124   -0.8945   -0.4500 S   0  0  0  0  0  0  0  0  0  0  0  0
   -2.2892    0.3352    0.2616 P   0  0  0  0  0  0  0  0  0  0  0  0
   -2.5443    2.0484   -0.6486 S   0  0  0  0  0  0  0  0  0  0  0  0
   -3.5447   -0.6593    0.1863 O   0  0  0  0  0  0  0  0  0  0  0  0
   -4.1518   -1.0369   -1.0551 C   0  0  0  0  0  0  0  0  0  0  0  0
   -2.1597    0.4863    1.8284 O   0  0  0  0  0  0  0  0  0  0  0  0
   -1.8718   -0.6396    2.6789 C   0  0  0  0  0  0  0  0  0  0  0  0
    3.0333   -3.5130    0.2354 H   0  0  0  0  0  0  0  0  0  0  0  0
    3.3471   -4.3654   -1.2842 H   0  0  0  0  0  0  0  0  0  0  0  0
    4.6151   -4.2492   -0.0535 H   0  0  0  0  0  0  0  0  0  0  0  0
    5.0391   -2.6320   -1.9094 H   0  0  0  0  0  0  0  0  0  0  0  0
    4.7013   -1.7732   -0.3723 H   0  0  0  0  0  0  0  0  0  0  0  0
    0.9990   -1.0068   -2.7463 H   0  0  0  0  0  0  0  0  0  0  0  0
    1.9534    0.4851   -2.6242 H   0  0  0  0  0  0  0  0  0  0  0  0
    1.3636    2.9658    1.5873 H   0  0  0  0  0  0  0  0  0  0  0  0
   -0.0154    2.4165    2.5916 H   0  0  0  0  0  0  0  0  0  0  0  0
    2.6943    0.9971    2.3516 H   0  0  0  0  0  0  0  0  0  0  0  0
    2.1903    1.9946    3.7269 H   0  0  0  0  0  0  0  0  0  0  0  0
    1.3526    0.4734    3.3744 H   0  0  0  0  0  0  0  0  0  0  0  0
   -3.4746   -1.6716   -1.6260 H   0  0  0  0  0  0  0  0  0  0  0  0
   -4.4079   -0.1479   -1.6332 H   0  0  0  0  0  0  0  0  0  0  0  0
   -5.0515   -1.5845   -0.7839 H   0  0  0  0  0  0  0  0  0  0  0  0
   -0.9234   -1.0895    2.3836 H   0  0  0  0  0  0  0  0  0  0  0  0
   -2.6714   -1.3746    2.6101 H   0  0  0  0  0  0  0  0  0  0  0  0
   -1.8073   -0.2299    3.6833 H   0  0  0  0  0  0  0  0  0  0  0  0
  1  2  1  0  0  0  0
  2  3  1  0  0  0  0
  3  4  1  0  0  0  0
  4  5  2  0  0  0  0
  4  6  1  0  0  0  0
  6  7  1  0  0  0  0
  7  8  1  0  0  0  0
  7  9  1  0  0  0  0
  9 10  2  0  0  0  0
  9 11  1  0  0  0  0
 11 12  1  0  0  0  0
 12 13  1  0  0  0  0
  7 14  1  0  0  0  0
 14 15  1  0  0  0  0
 15 16  2  0  0  0  0
 15 17  1  0  0  0  0
 17 18  1  0  0  0  0
 15 19  2  0  0  0  0
 19 20  1  0  0  0  0
  1 21  1  0  0  0  0
  1 22  1  0  0  0  0
  1 23  1  0  0  0  0
  2 24  1  0  0  0  0
  2 25  1  0  0  0  0
  6 26  1  0  0  0  0
  6 27  1  0  0  0  0
 12 28  1  0  0  0  0
 12 29  1  0  0  0  0
 13 30  1  0  0  0  0
 13 31  1  0  0  0  0
 13 32  1  0  0  0  0
 18 33  1  0  0  0  0
 18 34  1  0  0  0  0
 18 35  1  0  0  0  0
 20 36  1  0  0  0  0
 20 37  1  0  0  0  0
 20 38  1  0  0  0  0
M  END
