 xtb: 6.7.1 (edcfbbe)
          04032519423D

  8  7  0     0  0            999 V2000
    0.7232   -0.6336    0.0044 C   0  0  0  0  0  0  0  0  0  0  0  0
   -0.6094    0.0300    0.4134 C   0  0  0  0  0  0  0  0  0  0  0  0
   -1.1651   -0.6920    1.4104 F   0  0  0  0  0  0  0  0  0  0  0  0
   -1.7146    0.0364   -0.9642 Cl  0  0  0  0  0  0  0  0  0  0  0  0
   -0.2994    1.6652    1.0041 Cl  0  0  0  0  0  0  0  0  0  0  0  0
    1.5475   -0.7026    1.0597 F   0  0  0  0  0  0  0  0  0  0  0  0
    0.5088   -1.8986   -0.3848 F   0  0  0  0  0  0  0  0  0  0  0  0
    1.4978    0.2676   -1.2987 Cl  0  0  0  0  0  0  0  0  0  0  0  0
  1  2  1  0  0  0  0
  2  3  1  0  0  0  0
  2  4  1  0  0  0  0
  2  5  1  0  0  0  0
  1  6  1  0  0  0  0
  1  7  1  0  0  0  0
  1  8  1  0  0  0  0
M  END
