19
CONF1
C -3.0943965260 0.3690883000 0.0007465939
C -1.6305790687 0.0282858781 -0.0003041716
C -1.1882492820 -1.2950139254 -0.0000564058
C 0.1767519599 -1.5837470129 0.0004697138
C 1.1436722692 -0.5804676625 0.0004967166
C 0.6846280944 0.7454931305 -0.0000831522
C -0.6731311067 1.0478121875 -0.0004020027
O 1.6455160122 1.7363815774 -0.0006877328
C 2.6127737389 -0.8819507615 0.0003954700
H -3.3587138039 0.9760372228 -0.8720566650
H -3.7089111327 -0.5343718823 -0.0126094537
H -3.3627971798 0.9518432464 0.8887985238
H -1.9118263553 -2.1047847056 -0.0002332290
H 0.5045720324 -2.6200810225 0.0007169432
H -0.9860769221 2.0899960639 -0.0007877606
H 1.2063782609 2.5984530926 -0.0008207023
H 3.1080356093 -0.4624664076 -0.8824712012
H 3.1104213135 -0.4519394428 0.8767611943
H 2.7804616799 -1.9615111316 0.0065076292
19
CONF2
C -3.0940355484 0.3705860416 -0.0036457772
C -1.6312888344 0.0253083713 -0.0108693407
C -1.1931554961 -1.2960708371 -0.1042970819
C 0.1709137589 -1.5894965793 -0.1076112012
C 1.1401363814 -0.5925157170 -0.0187261899
C 0.6854794401 0.7317904181 0.0748392055
C -0.6713942292 1.0385539275 0.0786406231
O 1.6495181295 1.7146870690 0.1635990414
C 2.6087168987 -0.8977045024 -0.0152783874
H -3.7103111562 -0.5266087052 -0.0999348205
H -3.3743039630 0.8792349170 0.9253292022
H -3.3435725082 1.0478254026 -0.8276370601
H -1.9192271783 -2.1005666125 -0.1755909494
H 0.4960355581 -2.6241007127 -0.1813326083
H -0.9821154569 2.0789739272 0.1525684358
H 1.2148454047 2.5771008080 0.2202547627
H 3.1302654211 -0.3688425184 -0.8198772791
H 3.0788546287 -0.5865808677 0.9241352209
H 2.7765771614 -1.9691259214 -0.1428931810
19
CONF3
C -3.0919549738 0.3835583243 0.0078802287
C -1.6274077886 0.0454936223 -0.0070310031
C -1.1997582681 -1.2866678841 -0.0066140654
C 0.1578426579 -1.5905867452 -0.0013013880
C 1.1390877551 -0.5960160805 0.0019537016
C 0.6950347989 0.7328740468 -0.0004299651
C -0.6614594391 1.0513329033 -0.0052508421
O 1.5802298085 1.7937332536 -0.0005791570
C 2.6050868164 -0.9217001098 0.0036620593
H -3.5380213936 0.1417758529 0.9795104116
H -3.2564717259 1.4470355311 -0.1820960563
H -3.6367338123 -0.1920388784 -0.7471556017
H -1.9333879171 -2.0877700393 -0.0104652136
H 0.4753591845 -2.6301383709 -0.0020615110
H -0.9550159097 2.0972102187 -0.0086204666
H 2.4863499648 1.4562100215 0.0013026498
H 3.1128615591 -0.5161359047 -0.8807743839
H 3.1117374437 -0.5129267124 0.8872110047
H 2.7548522467 -2.0033731423 0.0056546775
