 xtb: 6.7.1 (edcfbbe)
          04092513593D

 41 40  0     0  0            999 V2000
    1.1829   -2.9854    0.9577 C   0  0  0  0  0  0  0  0  0  0  0  0
    2.1602   -1.9186    1.4085 C   0  0  0  0  0  0  0  0  0  0  0  0
    1.7381   -0.6210    0.9427 O   0  0  0  0  0  0  0  0  0  0  0  0
    2.4556    0.1313   -0.2720 P   0  0  0  0  0  0  0  0  0  0  0  0
    3.1514   -1.0268   -1.6826 S   0  0  0  0  0  0  0  0  0  0  0  0
    3.6445    0.9867    0.3412 O   0  0  0  0  0  0  0  0  0  0  0  0
    3.5165    2.1769    1.1545 C   0  0  0  0  0  0  0  0  0  0  0  0
    2.7289    1.9394    2.4263 C   0  0  0  0  0  0  0  0  0  0  0  0
    0.9725    1.5502   -0.7613 S   0  0  0  0  0  0  0  0  0  0  0  0
    0.1696    0.6020   -2.0784 C   0  0  0  0  0  0  0  0  0  0  0  0
   -0.6467   -0.9067   -1.4927 S   0  0  0  0  0  0  0  0  0  0  0  0
   -2.0237    0.0212   -0.1821 P   0  0  0  0  0  0  0  0  0  0  0  0
   -2.7406    1.7604   -0.7470 S   0  0  0  0  0  0  0  0  0  0  0  0
   -1.2330   -0.0171    1.1848 O   0  0  0  0  0  0  0  0  0  0  0  0
   -1.4798    0.9219    2.2509 C   0  0  0  0  0  0  0  0  0  0  0  0
   -2.7862    0.6292    2.9581 C   0  0  0  0  0  0  0  0  0  0  0  0
   -3.1105   -1.1131    0.0516 O   0  0  0  0  0  0  0  0  0  0  0  0
   -4.1345   -1.3989   -0.9232 C   0  0  0  0  0  0  0  0  0  0  0  0
   -5.1928   -2.2503   -0.2506 C   0  0  0  0  0  0  0  0  0  0  0  0
    1.2061   -3.0812   -0.1259 H   0  0  0  0  0  0  0  0  0  0  0  0
    1.4569   -3.9350    1.4060 H   0  0  0  0  0  0  0  0  0  0  0  0
    0.1743   -2.7164    1.2617 H   0  0  0  0  0  0  0  0  0  0  0  0
    3.1672   -2.1275    1.0339 H   0  0  0  0  0  0  0  0  0  0  0  0
    2.1834   -1.8351    2.4968 H   0  0  0  0  0  0  0  0  0  0  0  0
    4.5527    2.4458    1.3668 H   0  0  0  0  0  0  0  0  0  0  0  0
    3.0483    2.9556    0.5469 H   0  0  0  0  0  0  0  0  0  0  0  0
    1.6972    1.6899    2.1864 H   0  0  0  0  0  0  0  0  0  0  0  0
    3.1688    1.1254    2.9973 H   0  0  0  0  0  0  0  0  0  0  0  0
    2.7432    2.8448    3.0249 H   0  0  0  0  0  0  0  0  0  0  0  0
    0.9141    0.2827   -2.8073 H   0  0  0  0  0  0  0  0  0  0  0  0
   -0.5665    1.2705   -2.5240 H   0  0  0  0  0  0  0  0  0  0  0  0
   -0.6236    0.7954    2.9152 H   0  0  0  0  0  0  0  0  0  0  0  0
   -1.4812    1.9338    1.8320 H   0  0  0  0  0  0  0  0  0  0  0  0
   -2.8924    1.2966    3.8077 H   0  0  0  0  0  0  0  0  0  0  0  0
   -3.6193    0.7885    2.2749 H   0  0  0  0  0  0  0  0  0  0  0  0
   -2.8053   -0.4016    3.3016 H   0  0  0  0  0  0  0  0  0  0  0  0
   -4.5486   -0.4507   -1.2822 H   0  0  0  0  0  0  0  0  0  0  0  0
   -3.6728   -1.9268   -1.7623 H   0  0  0  0  0  0  0  0  0  0  0  0
   -4.7450   -3.1630    0.1316 H   0  0  0  0  0  0  0  0  0  0  0  0
   -5.6446   -1.7069    0.5743 H   0  0  0  0  0  0  0  0  0  0  0  0
   -5.9600   -2.5026   -0.9753 H   0  0  0  0  0  0  0  0  0  0  0  0
  1  2  1  0  0  0  0
  2  3  1  0  0  0  0
  3  4  1  0  0  0  0
  4  5  2  0  0  0  0
  4  6  2  0  0  0  0
  6  7  1  0  0  0  0
  7  8  1  0  0  0  0
  4  9  1  0  0  0  0
  9 10  1  0  0  0  0
 10 11  1  0  0  0  0
 11 12  1  0  0  0  0
 12 13  2  0  0  0  0
 12 14  2  0  0  0  0
 14 15  1  0  0  0  0
 15 16  1  0  0  0  0
 12 17  2  0  0  0  0
 17 18  1  0  0  0  0
 18 19  1  0  0  0  0
  1 20  1  0  0  0  0
  1 21  1  0  0  0  0
  1 22  1  0  0  0  0
  2 23  1  0  0  0  0
  2 24  1  0  0  0  0
  7 25  1  0  0  0  0
  7 26  1  0  0  0  0
  8 27  1  0  0  0  0
  8 28  1  0  0  0  0
  8 29  1  0  0  0  0
 10 30  1  0  0  0  0
 10 31  1  0  0  0  0
 15 32  1  0  0  0  0
 15 33  1  0  0  0  0
 16 34  1  0  0  0  0
 16 35  1  0  0  0  0
 16 36  1  0  0  0  0
 18 37  1  0  0  0  0
 18 38  1  0  0  0  0
 19 39  1  0  0  0  0
 19 40  1  0  0  0  0
 19 41  1  0  0  0  0
M  END
