 xtb: 6.7.1 (edcfbbe)
          04092505203D

 41 40  0     0  0            999 V2000
    3.4303   -0.7469    2.2136 C   0  0  0  0  0  0  0  0  0  0  0  0
    4.1780    0.0291    1.1508 C   0  0  0  0  0  0  0  0  0  0  0  0
    3.6115   -0.1206   -0.1738 O   0  0  0  0  0  0  0  0  0  0  0  0
    2.0928    0.1037   -0.5807 P   0  0  0  0  0  0  0  0  0  0  0  0
    1.9519    0.3994   -2.5085 S   0  0  0  0  0  0  0  0  0  0  0  0
    1.5368    1.2661    0.3684 O   0  0  0  0  0  0  0  0  0  0  0  0
    1.4423    2.6299   -0.0728 C   0  0  0  0  0  0  0  0  0  0  0  0
    2.7915    3.3177   -0.0419 C   0  0  0  0  0  0  0  0  0  0  0  0
    1.1371   -1.6188    0.1588 S   0  0  0  0  0  0  0  0  0  0  0  0
   -0.1691   -1.8652   -1.0891 C   0  0  0  0  0  0  0  0  0  0  0  0
   -1.8081   -1.9636   -0.3519 S   0  0  0  0  0  0  0  0  0  0  0  0
   -1.9739    0.0930    0.1784 P   0  0  0  0  0  0  0  0  0  0  0  0
   -1.4634    1.3133   -1.2713 S   0  0  0  0  0  0  0  0  0  0  0  0
   -1.0839    0.4005    1.4417 O   0  0  0  0  0  0  0  0  0  0  0  0
   -1.3610    0.0128    2.8119 C   0  0  0  0  0  0  0  0  0  0  0  0
   -1.3549   -1.4880    3.0154 C   0  0  0  0  0  0  0  0  0  0  0  0
   -3.4384    0.2053    0.7773 O   0  0  0  0  0  0  0  0  0  0  0  0
   -4.6237   -0.3439    0.1720 C   0  0  0  0  0  0  0  0  0  0  0  0
   -4.8593    0.1769   -1.2300 C   0  0  0  0  0  0  0  0  0  0  0  0
    3.3759   -1.8007    1.9515 H   0  0  0  0  0  0  0  0  0  0  0  0
    3.9497   -0.6394    3.1610 H   0  0  0  0  0  0  0  0  0  0  0  0
    2.4186   -0.3574    2.3173 H   0  0  0  0  0  0  0  0  0  0  0  0
    5.1974   -0.3391    1.0243 H   0  0  0  0  0  0  0  0  0  0  0  0
    4.1981    1.0944    1.3915 H   0  0  0  0  0  0  0  0  0  0  0  0
    1.0222    2.6452   -1.0841 H   0  0  0  0  0  0  0  0  0  0  0  0
    0.7291    3.0870    0.6152 H   0  0  0  0  0  0  0  0  0  0  0  0
    3.1962    3.3197    0.9669 H   0  0  0  0  0  0  0  0  0  0  0  0
    3.4811    2.8007   -0.7095 H   0  0  0  0  0  0  0  0  0  0  0  0
    2.6761    4.3419   -0.3826 H   0  0  0  0  0  0  0  0  0  0  0  0
    0.0050   -2.8200   -1.5786 H   0  0  0  0  0  0  0  0  0  0  0  0
   -0.1272   -1.0415   -1.8082 H   0  0  0  0  0  0  0  0  0  0  0  0
   -0.5552    0.4942    3.3686 H   0  0  0  0  0  0  0  0  0  0  0  0
   -2.3210    0.4460    3.0978 H   0  0  0  0  0  0  0  0  0  0  0  0
   -2.2025   -1.9474    2.5122 H   0  0  0  0  0  0  0  0  0  0  0  0
   -0.4371   -1.9218    2.6244 H   0  0  0  0  0  0  0  0  0  0  0  0
   -1.4221   -1.6957    4.0789 H   0  0  0  0  0  0  0  0  0  0  0  0
   -4.5323   -1.4334    0.1683 H   0  0  0  0  0  0  0  0  0  0  0  0
   -5.4221   -0.0381    0.8504 H   0  0  0  0  0  0  0  0  0  0  0  0
   -4.8880    1.2640   -1.2323 H   0  0  0  0  0  0  0  0  0  0  0  0
   -4.0554   -0.1449   -1.8906 H   0  0  0  0  0  0  0  0  0  0  0  0
   -5.8013   -0.2093   -1.6055 H   0  0  0  0  0  0  0  0  0  0  0  0
  1  2  1  0  0  0  0
  2  3  1  0  0  0  0
  3  4  2  0  0  0  0
  4  5  2  0  0  0  0
  4  6  1  0  0  0  0
  6  7  1  0  0  0  0
  7  8  1  0  0  0  0
  4  9  1  0  0  0  0
  9 10  1  0  0  0  0
 10 11  1  0  0  0  0
 11 12  1  0  0  0  0
 12 13  2  0  0  0  0
 12 14  2  0  0  0  0
 14 15  1  0  0  0  0
 15 16  1  0  0  0  0
 12 17  2  0  0  0  0
 17 18  1  0  0  0  0
 18 19  1  0  0  0  0
  1 20  1  0  0  0  0
  1 21  1  0  0  0  0
  1 22  1  0  0  0  0
  2 23  1  0  0  0  0
  2 24  1  0  0  0  0
  7 25  1  0  0  0  0
  7 26  1  0  0  0  0
  8 27  1  0  0  0  0
  8 28  1  0  0  0  0
  8 29  1  0  0  0  0
 10 30  1  0  0  0  0
 10 31  1  0  0  0  0
 15 32  1  0  0  0  0
 15 33  1  0  0  0  0
 16 34  1  0  0  0  0
 16 35  1  0  0  0  0
 16 36  1  0  0  0  0
 18 37  1  0  0  0  0
 18 38  1  0  0  0  0
 19 39  1  0  0  0  0
 19 40  1  0  0  0  0
 19 41  1  0  0  0  0
M  END
