 xtb: 6.7.1 (edcfbbe)
          04092505213D

 41 40  0     0  0            999 V2000
    2.7843    0.2407   -2.4863 C   0  0  0  0  0  0  0  0  0  0  0  0
    1.8426    1.2169   -1.8163 C   0  0  0  0  0  0  0  0  0  0  0  0
    1.2512    0.6550   -0.6289 O   0  0  0  0  0  0  0  0  0  0  0  0
    2.0809    0.4553    0.7028 P   0  0  0  0  0  0  0  0  0  0  0  0
    3.3967    1.8412    1.1247 S   0  0  0  0  0  0  0  0  0  0  0  0
    2.6822   -1.0106    0.5100 O   0  0  0  0  0  0  0  0  0  0  0  0
    3.6813   -1.5365    1.4053 C   0  0  0  0  0  0  0  0  0  0  0  0
    4.3976   -2.6678    0.6960 C   0  0  0  0  0  0  0  0  0  0  0  0
    0.5243    0.2030    2.0869 S   0  0  0  0  0  0  0  0  0  0  0  0
   -0.3182   -1.2615    1.3580 C   0  0  0  0  0  0  0  0  0  0  0  0
   -2.0787   -0.9791    1.1318 S   0  0  0  0  0  0  0  0  0  0  0  0
   -1.9883   -0.0782   -0.8015 P   0  0  0  0  0  0  0  0  0  0  0  0
   -0.8866   -1.0673   -2.0828 S   0  0  0  0  0  0  0  0  0  0  0  0
   -1.4700    1.4096   -0.6769 O   0  0  0  0  0  0  0  0  0  0  0  0
   -2.2206    2.5416   -0.1760 C   0  0  0  0  0  0  0  0  0  0  0  0
   -2.5797    2.4135    1.2901 C   0  0  0  0  0  0  0  0  0  0  0  0
   -3.5179    0.1516   -1.1610 O   0  0  0  0  0  0  0  0  0  0  0  0
   -4.5574   -0.8361   -1.0270 C   0  0  0  0  0  0  0  0  0  0  0  0
   -4.2633   -2.1078   -1.7939 C   0  0  0  0  0  0  0  0  0  0  0  0
    3.6386    0.0467   -1.8400 H   0  0  0  0  0  0  0  0  0  0  0  0
    2.2648   -0.6941   -2.6843 H   0  0  0  0  0  0  0  0  0  0  0  0
    3.1339    0.6649   -3.4222 H   0  0  0  0  0  0  0  0  0  0  0  0
    0.9833    1.4456   -2.4492 H   0  0  0  0  0  0  0  0  0  0  0  0
    2.3617    2.1398   -1.5379 H   0  0  0  0  0  0  0  0  0  0  0  0
    4.3696   -0.7274    1.6723 H   0  0  0  0  0  0  0  0  0  0  0  0
    3.1793   -1.8879    2.3112 H   0  0  0  0  0  0  0  0  0  0  0  0
    5.1259   -3.1045    1.3713 H   0  0  0  0  0  0  0  0  0  0  0  0
    3.6834   -3.4283    0.3936 H   0  0  0  0  0  0  0  0  0  0  0  0
    4.9074   -2.2949   -0.1878 H   0  0  0  0  0  0  0  0  0  0  0  0
   -0.2216   -2.0828    2.0625 H   0  0  0  0  0  0  0  0  0  0  0  0
    0.1367   -1.4949    0.3940 H   0  0  0  0  0  0  0  0  0  0  0  0
   -1.5437    3.3809   -0.3463 H   0  0  0  0  0  0  0  0  0  0  0  0
   -3.1151    2.6552   -0.7911 H   0  0  0  0  0  0  0  0  0  0  0  0
   -3.3013    1.6140    1.4425 H   0  0  0  0  0  0  0  0  0  0  0  0
   -1.6920    2.2055    1.8844 H   0  0  0  0  0  0  0  0  0  0  0  0
   -3.0160    3.3493    1.6259 H   0  0  0  0  0  0  0  0  0  0  0  0
   -4.6905   -1.0493    0.0370 H   0  0  0  0  0  0  0  0  0  0  0  0
   -5.4414   -0.3296   -1.4187 H   0  0  0  0  0  0  0  0  0  0  0  0
   -3.3909   -2.6068   -1.3754 H   0  0  0  0  0  0  0  0  0  0  0  0
   -5.1179   -2.7732   -1.7268 H   0  0  0  0  0  0  0  0  0  0  0  0
   -4.0621   -1.8839   -2.8389 H   0  0  0  0  0  0  0  0  0  0  0  0
  1  2  1  0  0  0  0
  2  3  1  0  0  0  0
  3  4  2  0  0  0  0
  4  5  2  0  0  0  0
  4  6  2  0  0  0  0
  6  7  1  0  0  0  0
  7  8  1  0  0  0  0
  4  9  1  0  0  0  0
  9 10  1  0  0  0  0
 10 11  1  0  0  0  0
 11 12  1  0  0  0  0
 12 13  2  0  0  0  0
 12 14  2  0  0  0  0
 14 15  1  0  0  0  0
 15 16  1  0  0  0  0
 12 17  2  0  0  0  0
 17 18  1  0  0  0  0
 18 19  1  0  0  0  0
  1 20  1  0  0  0  0
  1 21  1  0  0  0  0
  1 22  1  0  0  0  0
  2 23  1  0  0  0  0
  2 24  1  0  0  0  0
  7 25  1  0  0  0  0
  7 26  1  0  0  0  0
  8 27  1  0  0  0  0
  8 28  1  0  0  0  0
  8 29  1  0  0  0  0
 10 30  1  0  0  0  0
 10 31  1  0  0  0  0
 15 32  1  0  0  0  0
 15 33  1  0  0  0  0
 16 34  1  0  0  0  0
 16 35  1  0  0  0  0
 16 36  1  0  0  0  0
 18 37  1  0  0  0  0
 18 38  1  0  0  0  0
 19 39  1  0  0  0  0
 19 40  1  0  0  0  0
 19 41  1  0  0  0  0
M  END
