 xtb: 6.7.1 (edcfbbe)
          04092505203D

 41 40  0     0  0            999 V2000
    4.5460   -2.2058    0.5828 C   0  0  0  0  0  0  0  0  0  0  0  0
    4.7337   -0.7130    0.4053 C   0  0  0  0  0  0  0  0  0  0  0  0
    3.5359    0.0207    0.7168 O   0  0  0  0  0  0  0  0  0  0  0  0
    2.2357   -0.0422   -0.2010 P   0  0  0  0  0  0  0  0  0  0  0  0
    2.6440   -0.0866   -2.1232 S   0  0  0  0  0  0  0  0  0  0  0  0
    1.4340    1.2147    0.3519 O   0  0  0  0  0  0  0  0  0  0  0  0
    1.7609    2.5617   -0.0540 C   0  0  0  0  0  0  0  0  0  0  0  0
    0.8079    3.0450   -1.1296 C   0  0  0  0  0  0  0  0  0  0  0  0
    1.0877   -1.5881    0.6284 S   0  0  0  0  0  0  0  0  0  0  0  0
   -0.1104   -1.7953   -0.7296 C   0  0  0  0  0  0  0  0  0  0  0  0
   -0.8032   -0.2488   -1.3746 S   0  0  0  0  0  0  0  0  0  0  0  0
   -2.1266    0.2580    0.1917 P   0  0  0  0  0  0  0  0  0  0  0  0
   -3.1323    1.9235   -0.0261 S   0  0  0  0  0  0  0  0  0  0  0  0
   -1.1311    0.1960    1.4207 O   0  0  0  0  0  0  0  0  0  0  0  0
   -1.4153    0.8463    2.6740 C   0  0  0  0  0  0  0  0  0  0  0  0
   -2.5342    0.1558    3.4246 C   0  0  0  0  0  0  0  0  0  0  0  0
   -3.0145   -1.0478    0.4346 O   0  0  0  0  0  0  0  0  0  0  0  0
   -4.2782   -1.2385   -0.2208 C   0  0  0  0  0  0  0  0  0  0  0  0
   -4.1155   -1.5175   -1.7018 C   0  0  0  0  0  0  0  0  0  0  0  0
    3.8450   -2.5822   -0.1609 H   0  0  0  0  0  0  0  0  0  0  0  0
    5.5005   -2.7054    0.4523 H   0  0  0  0  0  0  0  0  0  0  0  0
    4.1552   -2.4224    1.5737 H   0  0  0  0  0  0  0  0  0  0  0  0
    5.0219   -0.4813   -0.6252 H   0  0  0  0  0  0  0  0  0  0  0  0
    5.4743   -0.3122    1.0986 H   0  0  0  0  0  0  0  0  0  0  0  0
    1.6696    3.1573    0.8561 H   0  0  0  0  0  0  0  0  0  0  0  0
    2.7953    2.5896   -0.4085 H   0  0  0  0  0  0  0  0  0  0  0  0
    0.9145    2.4416   -2.0291 H   0  0  0  0  0  0  0  0  0  0  0  0
   -0.2219    2.9714   -0.7848 H   0  0  0  0  0  0  0  0  0  0  0  0
    1.0289    4.0805   -1.3672 H   0  0  0  0  0  0  0  0  0  0  0  0
   -0.9040   -2.4275   -0.3384 H   0  0  0  0  0  0  0  0  0  0  0  0
    0.3875   -2.2586   -1.5795 H   0  0  0  0  0  0  0  0  0  0  0  0
   -0.4684    0.7925    3.2136 H   0  0  0  0  0  0  0  0  0  0  0  0
   -1.6703    1.8918    2.4717 H   0  0  0  0  0  0  0  0  0  0  0  0
   -2.3151   -0.9033    3.5324 H   0  0  0  0  0  0  0  0  0  0  0  0
   -2.6388    0.6064    4.4067 H   0  0  0  0  0  0  0  0  0  0  0  0
   -3.4708    0.2710    2.8809 H   0  0  0  0  0  0  0  0  0  0  0  0
   -4.7241   -2.0848    0.3036 H   0  0  0  0  0  0  0  0  0  0  0  0
   -4.8865   -0.3414   -0.0670 H   0  0  0  0  0  0  0  0  0  0  0  0
   -3.4697   -2.3769   -1.8625 H   0  0  0  0  0  0  0  0  0  0  0  0
   -5.0894   -1.7155   -2.1379 H   0  0  0  0  0  0  0  0  0  0  0  0
   -3.6774   -0.6513   -2.1972 H   0  0  0  0  0  0  0  0  0  0  0  0
  1  2  1  0  0  0  0
  2  3  1  0  0  0  0
  3  4  2  0  0  0  0
  4  5  2  0  0  0  0
  4  6  1  0  0  0  0
  6  7  1  0  0  0  0
  7  8  1  0  0  0  0
  4  9  1  0  0  0  0
  9 10  1  0  0  0  0
 10 11  1  0  0  0  0
 11 12  1  0  0  0  0
 12 13  2  0  0  0  0
 12 14  2  0  0  0  0
 14 15  1  0  0  0  0
 15 16  1  0  0  0  0
 12 17  1  0  0  0  0
 17 18  1  0  0  0  0
 18 19  1  0  0  0  0
  1 20  1  0  0  0  0
  1 21  1  0  0  0  0
  1 22  1  0  0  0  0
  2 23  1  0  0  0  0
  2 24  1  0  0  0  0
  7 25  1  0  0  0  0
  7 26  1  0  0  0  0
  8 27  1  0  0  0  0
  8 28  1  0  0  0  0
  8 29  1  0  0  0  0
 10 30  1  0  0  0  0
 10 31  1  0  0  0  0
 15 32  1  0  0  0  0
 15 33  1  0  0  0  0
 16 34  1  0  0  0  0
 16 35  1  0  0  0  0
 16 36  1  0  0  0  0
 18 37  1  0  0  0  0
 18 38  1  0  0  0  0
 19 39  1  0  0  0  0
 19 40  1  0  0  0  0
 19 41  1  0  0  0  0
M  END
