 xtb: 6.7.1 (edcfbbe)
          04092505203D

 41 40  0     0  0            999 V2000
    2.8993    0.1902    3.2805 C   0  0  0  0  0  0  0  0  0  0  0  0
    1.5473   -0.1556    2.6945 C   0  0  0  0  0  0  0  0  0  0  0  0
    1.4006    0.3831    1.3619 O   0  0  0  0  0  0  0  0  0  0  0  0
    2.2212   -0.1967    0.1409 P   0  0  0  0  0  0  0  0  0  0  0  0
    2.7309   -2.0884    0.2744 S   0  0  0  0  0  0  0  0  0  0  0  0
    3.3874    0.8745    0.0253 O   0  0  0  0  0  0  0  0  0  0  0  0
    4.4074    0.8091   -0.9913 C   0  0  0  0  0  0  0  0  0  0  0  0
    5.6232    0.0526   -0.4916 C   0  0  0  0  0  0  0  0  0  0  0  0
    0.9765    0.2906   -1.5037 S   0  0  0  0  0  0  0  0  0  0  0  0
   -0.0448   -1.2053   -1.4192 C   0  0  0  0  0  0  0  0  0  0  0  0
   -1.1309   -1.2351    0.0239 S   0  0  0  0  0  0  0  0  0  0  0  0
   -2.3887    0.3744   -0.6083 P   0  0  0  0  0  0  0  0  0  0  0  0
   -2.7682    0.4129   -2.5242 S   0  0  0  0  0  0  0  0  0  0  0  0
   -1.6917    1.6939   -0.1060 O   0  0  0  0  0  0  0  0  0  0  0  0
   -1.4284    1.9707    1.2918 C   0  0  0  0  0  0  0  0  0  0  0  0
   -2.4750    2.9117    1.8504 C   0  0  0  0  0  0  0  0  0  0  0  0
   -3.6536    0.2721    0.3465 O   0  0  0  0  0  0  0  0  0  0  0  0
   -4.7150   -0.6791    0.1307 C   0  0  0  0  0  0  0  0  0  0  0  0
   -4.4979   -1.9411    0.9422 C   0  0  0  0  0  0  0  0  0  0  0  0
    2.9509   -0.1630    4.3054 H   0  0  0  0  0  0  0  0  0  0  0  0
    3.6839   -0.2924    2.6988 H   0  0  0  0  0  0  0  0  0  0  0  0
    3.0562    1.2652    3.2566 H   0  0  0  0  0  0  0  0  0  0  0  0
    0.7311    0.2998    3.2562 H   0  0  0  0  0  0  0  0  0  0  0  0
    1.4083   -1.2404    2.6482 H   0  0  0  0  0  0  0  0  0  0  0  0
    3.9935    0.3416   -1.8896 H   0  0  0  0  0  0  0  0  0  0  0  0
    4.6478    1.8523   -1.2046 H   0  0  0  0  0  0  0  0  0  0  0  0
    6.0054    0.5162    0.4135 H   0  0  0  0  0  0  0  0  0  0  0  0
    5.3623   -0.9810   -0.2750 H   0  0  0  0  0  0  0  0  0  0  0  0
    6.3933    0.0694   -1.2560 H   0  0  0  0  0  0  0  0  0  0  0  0
    0.5990   -2.0826   -1.3492 H   0  0  0  0  0  0  0  0  0  0  0  0
   -0.6502   -1.2217   -2.3257 H   0  0  0  0  0  0  0  0  0  0  0  0
   -1.4092    1.0253    1.8409 H   0  0  0  0  0  0  0  0  0  0  0  0
   -0.4334    2.4208    1.3015 H   0  0  0  0  0  0  0  0  0  0  0  0
   -3.4537    2.4400    1.8278 H   0  0  0  0  0  0  0  0  0  0  0  0
   -2.2187    3.1613    2.8753 H   0  0  0  0  0  0  0  0  0  0  0  0
   -2.5101    3.8211    1.2568 H   0  0  0  0  0  0  0  0  0  0  0  0
   -5.6183   -0.1558    0.4496 H   0  0  0  0  0  0  0  0  0  0  0  0
   -4.7809   -0.8961   -0.9402 H   0  0  0  0  0  0  0  0  0  0  0  0
   -3.6009   -2.4607    0.6134 H   0  0  0  0  0  0  0  0  0  0  0  0
   -4.3925   -1.6943    1.9948 H   0  0  0  0  0  0  0  0  0  0  0  0
   -5.3539   -2.5955    0.8123 H   0  0  0  0  0  0  0  0  0  0  0  0
  1  2  1  0  0  0  0
  2  3  1  0  0  0  0
  3  4  2  0  0  0  0
  4  5  2  0  0  0  0
  4  6  2  0  0  0  0
  6  7  1  0  0  0  0
  7  8  1  0  0  0  0
  4  9  1  0  0  0  0
  9 10  1  0  0  0  0
 10 11  1  0  0  0  0
 11 12  1  0  0  0  0
 12 13  2  0  0  0  0
 12 14  2  0  0  0  0
 14 15  1  0  0  0  0
 15 16  1  0  0  0  0
 12 17  2  0  0  0  0
 17 18  1  0  0  0  0
 18 19  1  0  0  0  0
  1 20  1  0  0  0  0
  1 21  1  0  0  0  0
  1 22  1  0  0  0  0
  2 23  1  0  0  0  0
  2 24  1  0  0  0  0
  7 25  1  0  0  0  0
  7 26  1  0  0  0  0
  8 27  1  0  0  0  0
  8 28  1  0  0  0  0
  8 29  1  0  0  0  0
 10 30  1  0  0  0  0
 10 31  1  0  0  0  0
 15 32  1  0  0  0  0
 15 33  1  0  0  0  0
 16 34  1  0  0  0  0
 16 35  1  0  0  0  0
 16 36  1  0  0  0  0
 18 37  1  0  0  0  0
 18 38  1  0  0  0  0
 19 39  1  0  0  0  0
 19 40  1  0  0  0  0
 19 41  1  0  0  0  0
M  END
