 xtb: 6.7.1 (edcfbbe)
          04092505203D

 41 40  0     0  0            999 V2000
    5.7959   -0.2658   -0.8532 C   0  0  0  0  0  0  0  0  0  0  0  0
    4.3355   -0.6306   -1.0262 C   0  0  0  0  0  0  0  0  0  0  0  0
    3.5503    0.3161   -0.2755 O   0  0  0  0  0  0  0  0  0  0  0  0
    1.9882    0.4696   -0.5370 P   0  0  0  0  0  0  0  0  0  0  0  0
    1.5377    0.7356   -2.4252 S   0  0  0  0  0  0  0  0  0  0  0  0
    1.6310    1.6813    0.4028 O   0  0  0  0  0  0  0  0  0  0  0  0
    2.3345    2.0235    1.6257 C   0  0  0  0  0  0  0  0  0  0  0  0
    2.3427    0.8965    2.6369 C   0  0  0  0  0  0  0  0  0  0  0  0
    1.1853   -1.3093    0.3416 S   0  0  0  0  0  0  0  0  0  0  0  0
    0.0609   -1.8631   -0.9722 C   0  0  0  0  0  0  0  0  0  0  0  0
   -1.6215   -2.1915   -0.3833 S   0  0  0  0  0  0  0  0  0  0  0  0
   -2.1420   -0.2783    0.3153 P   0  0  0  0  0  0  0  0  0  0  0  0
   -1.4427    1.3137   -0.6112 S   0  0  0  0  0  0  0  0  0  0  0  0
   -1.7050   -0.4273    1.8304 O   0  0  0  0  0  0  0  0  0  0  0  0
   -1.5826    0.7064    2.7122 C   0  0  0  0  0  0  0  0  0  0  0  0
   -2.9283    1.3110    3.0543 C   0  0  0  0  0  0  0  0  0  0  0  0
   -3.7270   -0.3373    0.4198 O   0  0  0  0  0  0  0  0  0  0  0  0
   -4.5903    0.0594   -0.6584 C   0  0  0  0  0  0  0  0  0  0  0  0
   -4.4782   -0.8669   -1.8522 C   0  0  0  0  0  0  0  0  0  0  0  0
    5.9787    0.7341   -1.2368 H   0  0  0  0  0  0  0  0  0  0  0  0
    6.0663   -0.2959    0.1982 H   0  0  0  0  0  0  0  0  0  0  0  0
    6.4059   -0.9757   -1.4018 H   0  0  0  0  0  0  0  0  0  0  0  0
    4.1239   -1.6306   -0.6377 H   0  0  0  0  0  0  0  0  0  0  0  0
    4.0300   -0.5810   -2.0767 H   0  0  0  0  0  0  0  0  0  0  0  0
    3.3514    2.3156    1.3583 H   0  0  0  0  0  0  0  0  0  0  0  0
    1.7820    2.8914    1.9901 H   0  0  0  0  0  0  0  0  0  0  0  0
    2.9092    0.0493    2.2553 H   0  0  0  0  0  0  0  0  0  0  0  0
    2.8060    1.2495    3.5530 H   0  0  0  0  0  0  0  0  0  0  0  0
    1.3300    0.5659    2.8518 H   0  0  0  0  0  0  0  0  0  0  0  0
    0.4213   -2.8111   -1.3637 H   0  0  0  0  0  0  0  0  0  0  0  0
    0.0470   -1.0961   -1.7529 H   0  0  0  0  0  0  0  0  0  0  0  0
   -1.0909    0.2957    3.5957 H   0  0  0  0  0  0  0  0  0  0  0  0
   -0.9393    1.4507    2.2296 H   0  0  0  0  0  0  0  0  0  0  0  0
   -3.3669    1.7682    2.1685 H   0  0  0  0  0  0  0  0  0  0  0  0
   -3.6009    0.5407    3.4219 H   0  0  0  0  0  0  0  0  0  0  0  0
   -2.7962    2.0724    3.8167 H   0  0  0  0  0  0  0  0  0  0  0  0
   -5.5880    0.0314   -0.2183 H   0  0  0  0  0  0  0  0  0  0  0  0
   -4.3360    1.0852   -0.9447 H   0  0  0  0  0  0  0  0  0  0  0  0
   -3.4944   -0.7662   -2.3097 H   0  0  0  0  0  0  0  0  0  0  0  0
   -4.6168   -1.9000   -1.5436 H   0  0  0  0  0  0  0  0  0  0  0  0
   -5.2337   -0.6025   -2.5852 H   0  0  0  0  0  0  0  0  0  0  0  0
  1  2  1  0  0  0  0
  2  3  1  0  0  0  0
  3  4  2  0  0  0  0
  4  5  2  0  0  0  0
  4  6  2  0  0  0  0
  6  7  1  0  0  0  0
  7  8  1  0  0  0  0
  4  9  1  0  0  0  0
  9 10  1  0  0  0  0
 10 11  1  0  0  0  0
 11 12  1  0  0  0  0
 12 13  2  0  0  0  0
 12 14  2  0  0  0  0
 14 15  1  0  0  0  0
 15 16  1  0  0  0  0
 12 17  2  0  0  0  0
 17 18  1  0  0  0  0
 18 19  1  0  0  0  0
  1 20  1  0  0  0  0
  1 21  1  0  0  0  0
  1 22  1  0  0  0  0
  2 23  1  0  0  0  0
  2 24  1  0  0  0  0
  7 25  1  0  0  0  0
  7 26  1  0  0  0  0
  8 27  1  0  0  0  0
  8 28  1  0  0  0  0
  8 29  1  0  0  0  0
 10 30  1  0  0  0  0
 10 31  1  0  0  0  0
 15 32  1  0  0  0  0
 15 33  1  0  0  0  0
 16 34  1  0  0  0  0
 16 35  1  0  0  0  0
 16 36  1  0  0  0  0
 18 37  1  0  0  0  0
 18 38  1  0  0  0  0
 19 39  1  0  0  0  0
 19 40  1  0  0  0  0
 19 41  1  0  0  0  0
M  END
