 xtb: 6.7.1 (edcfbbe)
          04032520123D

 19 19  0     0  0            999 V2000
    1.9496   -0.0000    0.7091 C   0  0  0  0  0  0  0  0  0  0  0  0
    1.1007    0.0000   -0.4652 N   0  0  0  0  0  0  0  0  0  0  0  0
    0.2724    1.1867   -0.5983 C   0  0  0  0  0  0  0  0  0  0  0  0
   -0.9370    1.1962    0.3459 C   0  0  0  0  0  0  0  0  0  0  0  0
   -1.7269    0.0000    0.0983 N   0  0  0  0  0  0  0  0  0  0  0  0
   -0.9371   -1.1962    0.3458 C   0  0  0  0  0  0  0  0  0  0  0  0
    0.2724   -1.1866   -0.5984 C   0  0  0  0  0  0  0  0  0  0  0  0
    1.4084   -0.0001    1.6658 H   0  0  0  0  0  0  0  0  0  0  0  0
    2.5844    0.8842    0.6752 H   0  0  0  0  0  0  0  0  0  0  0  0
    2.5845   -0.8843    0.6750 H   0  0  0  0  0  0  0  0  0  0  0  0
    0.8899    2.0697   -0.4266 H   0  0  0  0  0  0  0  0  0  0  0  0
   -0.0960    1.2066   -1.6273 H   0  0  0  0  0  0  0  0  0  0  0  0
   -0.5889    1.2573    1.3936 H   0  0  0  0  0  0  0  0  0  0  0  0
   -1.5554    2.0716    0.1404 H   0  0  0  0  0  0  0  0  0  0  0  0
   -2.5541   -0.0000    0.6861 H   0  0  0  0  0  0  0  0  0  0  0  0
   -0.5889   -1.2574    1.3935 H   0  0  0  0  0  0  0  0  0  0  0  0
   -1.5554   -2.0716    0.1402 H   0  0  0  0  0  0  0  0  0  0  0  0
    0.8899   -2.0696   -0.4268 H   0  0  0  0  0  0  0  0  0  0  0  0
   -0.0960   -1.2065   -1.6274 H   0  0  0  0  0  0  0  0  0  0  0  0
  1  2  1  0  0  0  0
  2  3  1  0  0  0  0
  3  4  1  0  0  0  0
  4  5  1  0  0  0  0
  5  6  1  0  0  0  0
  2  7  1  0  0  0  0
  6  7  1  0  0  0  0
  1  8  1  0  0  0  0
  1  9  1  0  0  0  0
  1 10  1  0  0  0  0
  3 11  1  0  0  0  0
  3 12  1  0  0  0  0
  4 13  1  0  0  0  0
  4 14  1  0  0  0  0
  5 15  1  0  0  0  0
  6 16  1  0  0  0  0
  6 17  1  0  0  0  0
  7 18  1  0  0  0  0
  7 19  1  0  0  0  0
M  END
