 xtb: 6.7.1 (edcfbbe)
          04032520033D

 18 18  0     0  0            999 V2000
   -0.7257   -1.2526    0.2417 C   0  0  0  0  0  0  0  0  0  0  0  0
   -1.4476    0.0021   -0.2416 C   0  0  0  0  0  0  0  0  0  0  0  0
   -0.7220    1.2547    0.2417 C   0  0  0  0  0  0  0  0  0  0  0  0
    0.7256    1.2526   -0.2417 C   0  0  0  0  0  0  0  0  0  0  0  0
    1.4476   -0.0022    0.2416 C   0  0  0  0  0  0  0  0  0  0  0  0
    0.7219   -1.2548   -0.2416 C   0  0  0  0  0  0  0  0  0  0  0  0
   -1.2415   -2.1430   -0.1238 H   0  0  0  0  0  0  0  0  0  0  0  0
   -0.7418   -1.2805    1.3338 H   0  0  0  0  0  0  0  0  0  0  0  0
   -1.4799    0.0021   -1.3337 H   0  0  0  0  0  0  0  0  0  0  0  0
   -2.4766    0.0036    0.1240 H   0  0  0  0  0  0  0  0  0  0  0  0
   -1.2351    2.1466   -0.1239 H   0  0  0  0  0  0  0  0  0  0  0  0
   -0.7380    1.2827    1.3338 H   0  0  0  0  0  0  0  0  0  0  0  0
    0.7418    1.2804   -1.3337 H   0  0  0  0  0  0  0  0  0  0  0  0
    1.2415    2.1430    0.1239 H   0  0  0  0  0  0  0  0  0  0  0  0
    2.4766   -0.0037   -0.1240 H   0  0  0  0  0  0  0  0  0  0  0  0
    1.4799   -0.0022    1.3337 H   0  0  0  0  0  0  0  0  0  0  0  0
    0.7380   -1.2827   -1.3337 H   0  0  0  0  0  0  0  0  0  0  0  0
    1.2351   -2.1466    0.1239 H   0  0  0  0  0  0  0  0  0  0  0  0
  1  2  1  0  0  0  0
  2  3  1  0  0  0  0
  3  4  1  0  0  0  0
  4  5  1  0  0  0  0
  1  6  1  0  0  0  0
  5  6  1  0  0  0  0
  1  7  1  0  0  0  0
  1  8  1  0  0  0  0
  2  9  1  0  0  0  0
  2 10  1  0  0  0  0
  3 11  1  0  0  0  0
  3 12  1  0  0  0  0
  4 13  1  0  0  0  0
  4 14  1  0  0  0  0
  5 15  1  0  0  0  0
  5 16  1  0  0  0  0
  6 17  1  0  0  0  0
  6 18  1  0  0  0  0
M  END
