 xtb: 6.7.1 (edcfbbe)
          04092505213D

 41 40  0     0  0            999 V2000
    5.2492    0.4523   -0.5802 C   0  0  0  0  0  0  0  0  0  0  0  0
    3.9134    0.1872   -1.2438 C   0  0  0  0  0  0  0  0  0  0  0  0
    2.8358    0.7850   -0.4772 O   0  0  0  0  0  0  0  0  0  0  0  0
    1.9635   -0.0022    0.5725 P   0  0  0  0  0  0  0  0  0  0  0  0
    0.8936    1.1923    1.6891 S   0  0  0  0  0  0  0  0  0  0  0  0
    3.0419   -0.8378    1.3933 O   0  0  0  0  0  0  0  0  0  0  0  0
    2.7410   -1.4359    2.6648 C   0  0  0  0  0  0  0  0  0  0  0  0
    1.8000   -2.6145    2.5235 C   0  0  0  0  0  0  0  0  0  0  0  0
    1.0187   -1.5470   -0.5894 S   0  0  0  0  0  0  0  0  0  0  0  0
    0.4978   -0.5846   -2.0403 C   0  0  0  0  0  0  0  0  0  0  0  0
   -0.2860    0.9983   -1.6401 S   0  0  0  0  0  0  0  0  0  0  0  0
   -2.0914    0.1952   -0.8961 P   0  0  0  0  0  0  0  0  0  0  0  0
   -2.9687   -1.1499   -2.0022 S   0  0  0  0  0  0  0  0  0  0  0  0
   -2.9915    1.4769   -0.6687 O   0  0  0  0  0  0  0  0  0  0  0  0
   -2.5666    2.5870    0.1647 C   0  0  0  0  0  0  0  0  0  0  0  0
   -3.7986    3.1889    0.8071 C   0  0  0  0  0  0  0  0  0  0  0  0
   -1.6089   -0.3165    0.5378 O   0  0  0  0  0  0  0  0  0  0  0  0
   -2.3063   -1.3591    1.2452 C   0  0  0  0  0  0  0  0  0  0  0  0
   -3.6518   -0.8814    1.7488 C   0  0  0  0  0  0  0  0  0  0  0  0
    5.2941   -0.0400    0.3874 H   0  0  0  0  0  0  0  0  0  0  0  0
    6.0424    0.0694   -1.2149 H   0  0  0  0  0  0  0  0  0  0  0  0
    5.3876    1.5205   -0.4372 H   0  0  0  0  0  0  0  0  0  0  0  0
    3.7315   -0.8861   -1.3435 H   0  0  0  0  0  0  0  0  0  0  0  0
    3.8555    0.6731   -2.2200 H   0  0  0  0  0  0  0  0  0  0  0  0
    3.7143   -1.7414    3.0511 H   0  0  0  0  0  0  0  0  0  0  0  0
    2.3069   -0.6681    3.3138 H   0  0  0  0  0  0  0  0  0  0  0  0
    1.6582   -3.0831    3.4919 H   0  0  0  0  0  0  0  0  0  0  0  0
    0.8352   -2.2728    2.1496 H   0  0  0  0  0  0  0  0  0  0  0  0
    2.2034   -3.3415    1.8235 H   0  0  0  0  0  0  0  0  0  0  0  0
   -0.2145   -1.2127   -2.5783 H   0  0  0  0  0  0  0  0  0  0  0  0
    1.3596   -0.3525   -2.6612 H   0  0  0  0  0  0  0  0  0  0  0  0
   -1.8543    2.2264    0.9131 H   0  0  0  0  0  0  0  0  0  0  0  0
   -2.0638    3.3057   -0.4869 H   0  0  0  0  0  0  0  0  0  0  0  0
   -3.5034    4.0511    1.3962 H   0  0  0  0  0  0  0  0  0  0  0  0
   -4.5018    3.4982    0.0390 H   0  0  0  0  0  0  0  0  0  0  0  0
   -4.2829    2.4618    1.4529 H   0  0  0  0  0  0  0  0  0  0  0  0
   -2.4209   -2.2163    0.5740 H   0  0  0  0  0  0  0  0  0  0  0  0
   -1.6347   -1.6142    2.0667 H   0  0  0  0  0  0  0  0  0  0  0  0
   -3.5243   -0.0180    2.3973 H   0  0  0  0  0  0  0  0  0  0  0  0
   -4.2822   -0.6046    0.9033 H   0  0  0  0  0  0  0  0  0  0  0  0
   -4.1337   -1.6807    2.3028 H   0  0  0  0  0  0  0  0  0  0  0  0
  1  2  1  0  0  0  0
  2  3  1  0  0  0  0
  3  4  2  0  0  0  0
  4  5  2  0  0  0  0
  4  6  2  0  0  0  0
  6  7  1  0  0  0  0
  7  8  1  0  0  0  0
  4  9  1  0  0  0  0
  9 10  1  0  0  0  0
 10 11  1  0  0  0  0
 11 12  1  0  0  0  0
 12 13  2  0  0  0  0
 12 14  2  0  0  0  0
 14 15  1  0  0  0  0
 15 16  1  0  0  0  0
 12 17  1  0  0  0  0
 17 18  1  0  0  0  0
 18 19  1  0  0  0  0
  1 20  1  0  0  0  0
  1 21  1  0  0  0  0
  1 22  1  0  0  0  0
  2 23  1  0  0  0  0
  2 24  1  0  0  0  0
  7 25  1  0  0  0  0
  7 26  1  0  0  0  0
  8 27  1  0  0  0  0
  8 28  1  0  0  0  0
  8 29  1  0  0  0  0
 10 30  1  0  0  0  0
 10 31  1  0  0  0  0
 15 32  1  0  0  0  0
 15 33  1  0  0  0  0
 16 34  1  0  0  0  0
 16 35  1  0  0  0  0
 16 36  1  0  0  0  0
 18 37  1  0  0  0  0
 18 38  1  0  0  0  0
 19 39  1  0  0  0  0
 19 40  1  0  0  0  0
 19 41  1  0  0  0  0
M  END
