 xtb: 6.7.1 (edcfbbe)
          04092513593D

 41 40  0     0  0            999 V2000
    5.0956   -2.6241   -0.7802 C   0  0  0  0  0  0  0  0  0  0  0  0
    4.1329   -1.5534   -1.2538 C   0  0  0  0  0  0  0  0  0  0  0  0
    3.0527   -1.4728   -0.3017 O   0  0  0  0  0  0  0  0  0  0  0  0
    2.1234   -0.1890   -0.1674 P   0  0  0  0  0  0  0  0  0  0  0  0
    3.1044    1.5114   -0.1200 S   0  0  0  0  0  0  0  0  0  0  0  0
    1.2666   -0.5762    1.1030 O   0  0  0  0  0  0  0  0  0  0  0  0
    1.7249   -0.3042    2.4510 C   0  0  0  0  0  0  0  0  0  0  0  0
    0.9740    0.8771    3.0310 C   0  0  0  0  0  0  0  0  0  0  0  0
    0.7099   -0.4475   -1.7136 S   0  0  0  0  0  0  0  0  0  0  0  0
    0.1242    1.2691   -1.7900 C   0  0  0  0  0  0  0  0  0  0  0  0
   -0.6454    1.8246   -0.2539 S   0  0  0  0  0  0  0  0  0  0  0  0
   -2.3007    0.4749   -0.2851 P   0  0  0  0  0  0  0  0  0  0  0  0
   -3.0435    0.0405   -2.0363 S   0  0  0  0  0  0  0  0  0  0  0  0
   -3.3491    1.2052    0.6395 O   0  0  0  0  0  0  0  0  0  0  0  0
   -3.0734    1.7491    1.9543 C   0  0  0  0  0  0  0  0  0  0  0  0
   -3.2354    0.6992    3.0350 C   0  0  0  0  0  0  0  0  0  0  0  0
   -1.7962   -0.7688    0.5766 O   0  0  0  0  0  0  0  0  0  0  0  0
   -1.6697   -2.1138    0.0890 C   0  0  0  0  0  0  0  0  0  0  0  0
   -2.7657   -2.9732    0.6871 C   0  0  0  0  0  0  0  0  0  0  0  0
    5.5147   -2.3533    0.1847 H   0  0  0  0  0  0  0  0  0  0  0  0
    4.5763   -3.5733   -0.6854 H   0  0  0  0  0  0  0  0  0  0  0  0
    5.8985   -2.7245   -1.5032 H   0  0  0  0  0  0  0  0  0  0  0  0
    3.7067   -1.8039   -2.2287 H   0  0  0  0  0  0  0  0  0  0  0  0
    4.6192   -0.5740   -1.3147 H   0  0  0  0  0  0  0  0  0  0  0  0
    1.5217   -1.2211    3.0065 H   0  0  0  0  0  0  0  0  0  0  0  0
    2.8017   -0.1152    2.4349 H   0  0  0  0  0  0  0  0  0  0  0  0
    1.2074    1.7819    2.4733 H   0  0  0  0  0  0  0  0  0  0  0  0
   -0.0963    0.6992    2.9755 H   0  0  0  0  0  0  0  0  0  0  0  0
    1.2639    1.0116    4.0682 H   0  0  0  0  0  0  0  0  0  0  0  0
   -0.5991    1.3065   -2.6044 H   0  0  0  0  0  0  0  0  0  0  0  0
    0.9662    1.9364   -1.9707 H   0  0  0  0  0  0  0  0  0  0  0  0
   -2.0659    2.1742    1.9542 H   0  0  0  0  0  0  0  0  0  0  0  0
   -3.8067    2.5497    2.0650 H   0  0  0  0  0  0  0  0  0  0  0  0
   -3.0996    1.1672    4.0053 H   0  0  0  0  0  0  0  0  0  0  0  0
   -4.2297    0.2635    2.9837 H   0  0  0  0  0  0  0  0  0  0  0  0
   -2.5007   -0.0920    2.9114 H   0  0  0  0  0  0  0  0  0  0  0  0
   -1.7322   -2.1095   -1.0043 H   0  0  0  0  0  0  0  0  0  0  0  0
   -0.6756   -2.4482    0.3941 H   0  0  0  0  0  0  0  0  0  0  0  0
   -3.7375   -2.6133    0.3554 H   0  0  0  0  0  0  0  0  0  0  0  0
   -2.6348   -3.9988    0.3577 H   0  0  0  0  0  0  0  0  0  0  0  0
   -2.7256   -2.9350    1.7721 H   0  0  0  0  0  0  0  0  0  0  0  0
  1  2  1  0  0  0  0
  2  3  1  0  0  0  0
  3  4  2  0  0  0  0
  4  5  2  0  0  0  0
  4  6  2  0  0  0  0
  6  7  1  0  0  0  0
  7  8  1  0  0  0  0
  4  9  1  0  0  0  0
  9 10  1  0  0  0  0
 10 11  1  0  0  0  0
 11 12  1  0  0  0  0
 12 13  2  0  0  0  0
 12 14  2  0  0  0  0
 14 15  1  0  0  0  0
 15 16  1  0  0  0  0
 12 17  2  0  0  0  0
 17 18  1  0  0  0  0
 18 19  1  0  0  0  0
  1 20  1  0  0  0  0
  1 21  1  0  0  0  0
  1 22  1  0  0  0  0
  2 23  1  0  0  0  0
  2 24  1  0  0  0  0
  7 25  1  0  0  0  0
  7 26  1  0  0  0  0
  8 27  1  0  0  0  0
  8 28  1  0  0  0  0
  8 29  1  0  0  0  0
 10 30  1  0  0  0  0
 10 31  1  0  0  0  0
 15 32  1  0  0  0  0
 15 33  1  0  0  0  0
 16 34  1  0  0  0  0
 16 35  1  0  0  0  0
 16 36  1  0  0  0  0
 18 37  1  0  0  0  0
 18 38  1  0  0  0  0
 19 39  1  0  0  0  0
 19 40  1  0  0  0  0
 19 41  1  0  0  0  0
M  END
