 xtb: 6.7.1 (edcfbbe)
          04092505213D

 41 40  0     0  0            999 V2000
    2.4594   -0.3997   -3.0286 C   0  0  0  0  0  0  0  0  0  0  0  0
    3.1958   -1.4109   -2.1751 C   0  0  0  0  0  0  0  0  0  0  0  0
    3.3991   -0.9529   -0.8247 O   0  0  0  0  0  0  0  0  0  0  0  0
    2.2565   -0.3877    0.1223 P   0  0  0  0  0  0  0  0  0  0  0  0
    1.8052    1.5171   -0.0853 S   0  0  0  0  0  0  0  0  0  0  0  0
    2.8051   -0.7433    1.5700 O   0  0  0  0  0  0  0  0  0  0  0  0
    3.5997    0.1814    2.3362 C   0  0  0  0  0  0  0  0  0  0  0  0
    4.9843    0.3341    1.7437 C   0  0  0  0  0  0  0  0  0  0  0  0
    0.7411   -1.8398   -0.0378 S   0  0  0  0  0  0  0  0  0  0  0  0
   -0.3452   -1.2381    1.3014 C   0  0  0  0  0  0  0  0  0  0  0  0
   -2.0834   -1.2516    0.8260 S   0  0  0  0  0  0  0  0  0  0  0  0
   -2.1133    0.7236    0.0197 P   0  0  0  0  0  0  0  0  0  0  0  0
   -1.5206    2.0835    1.3005 S   0  0  0  0  0  0  0  0  0  0  0  0
   -3.5765    0.9097   -0.5606 O   0  0  0  0  0  0  0  0  0  0  0  0
   -4.6733    1.3719    0.2491 C   0  0  0  0  0  0  0  0  0  0  0  0
   -5.0519    0.3739    1.3234 C   0  0  0  0  0  0  0  0  0  0  0  0
   -1.2236    0.6806   -1.2833 O   0  0  0  0  0  0  0  0  0  0  0  0
   -1.6718    0.2446   -2.5926 C   0  0  0  0  0  0  0  0  0  0  0  0
   -2.0064   -1.2317   -2.6324 C   0  0  0  0  0  0  0  0  0  0  0  0
    2.3564   -0.7824   -4.0388 H   0  0  0  0  0  0  0  0  0  0  0  0
    1.4696   -0.2177   -2.6102 H   0  0  0  0  0  0  0  0  0  0  0  0
    2.9982    0.5449   -3.0507 H   0  0  0  0  0  0  0  0  0  0  0  0
    4.2080   -1.5866   -2.5434 H   0  0  0  0  0  0  0  0  0  0  0  0
    2.6459   -2.3553   -2.1315 H   0  0  0  0  0  0  0  0  0  0  0  0
    3.0821    1.1466    2.3657 H   0  0  0  0  0  0  0  0  0  0  0  0
    3.6264   -0.2563    3.3349 H   0  0  0  0  0  0  0  0  0  0  0  0
    4.9063    0.7724    0.7491 H   0  0  0  0  0  0  0  0  0  0  0  0
    5.5793    0.9865    2.3750 H   0  0  0  0  0  0  0  0  0  0  0  0
    5.4665   -0.6362    1.6625 H   0  0  0  0  0  0  0  0  0  0  0  0
   -0.0573   -0.2147    1.5581 H   0  0  0  0  0  0  0  0  0  0  0  0
   -0.2366   -1.9047    2.1524 H   0  0  0  0  0  0  0  0  0  0  0  0
   -4.3923    2.3304    0.6961 H   0  0  0  0  0  0  0  0  0  0  0  0
   -5.4805    1.5180   -0.4701 H   0  0  0  0  0  0  0  0  0  0  0  0
   -4.2554    0.3038    2.0623 H   0  0  0  0  0  0  0  0  0  0  0  0
   -5.9599    0.7067    1.8160 H   0  0  0  0  0  0  0  0  0  0  0  0
   -5.2146   -0.6091    0.8894 H   0  0  0  0  0  0  0  0  0  0  0  0
   -2.5341    0.8508   -2.8750 H   0  0  0  0  0  0  0  0  0  0  0  0
   -0.8244    0.4872   -3.2366 H   0  0  0  0  0  0  0  0  0  0  0  0
   -2.2192   -1.5136   -3.6588 H   0  0  0  0  0  0  0  0  0  0  0  0
   -1.1720   -1.8247   -2.2643 H   0  0  0  0  0  0  0  0  0  0  0  0
   -2.8808   -1.4376   -2.0190 H   0  0  0  0  0  0  0  0  0  0  0  0
  1  2  1  0  0  0  0
  2  3  1  0  0  0  0
  3  4  2  0  0  0  0
  4  5  2  0  0  0  0
  4  6  2  0  0  0  0
  6  7  1  0  0  0  0
  7  8  1  0  0  0  0
  4  9  1  0  0  0  0
  9 10  1  0  0  0  0
 10 11  1  0  0  0  0
 11 12  1  0  0  0  0
 12 13  2  0  0  0  0
 12 14  2  0  0  0  0
 14 15  1  0  0  0  0
 15 16  1  0  0  0  0
 12 17  2  0  0  0  0
 17 18  1  0  0  0  0
 18 19  1  0  0  0  0
  1 20  1  0  0  0  0
  1 21  1  0  0  0  0
  1 22  1  0  0  0  0
  2 23  1  0  0  0  0
  2 24  1  0  0  0  0
  7 25  1  0  0  0  0
  7 26  1  0  0  0  0
  8 27  1  0  0  0  0
  8 28  1  0  0  0  0
  8 29  1  0  0  0  0
 10 30  1  0  0  0  0
 10 31  1  0  0  0  0
 15 32  1  0  0  0  0
 15 33  1  0  0  0  0
 16 34  1  0  0  0  0
 16 35  1  0  0  0  0
 16 36  1  0  0  0  0
 18 37  1  0  0  0  0
 18 38  1  0  0  0  0
 19 39  1  0  0  0  0
 19 40  1  0  0  0  0
 19 41  1  0  0  0  0
M  END
