  26
 
 C          5.2265532621        0.2697355285        0.0020609398
 C          3.9503271803       -0.5636790356       -0.0005956529
 C          2.7027560954        0.3174129232        0.0001963486
 C          1.4207758583       -0.5117232184       -0.0002953447
 C          0.1883784598        0.3794430878       -0.0001798849
 O         -0.9763934898       -0.4586885854       -0.0006193780
 C         -2.1639952419        0.1405696297       -0.0003119013
 O         -2.2956274965        1.3462139409        0.0004686492
 C         -3.2850207342       -0.8653458589       -0.0005023593
 C         -4.6542199815       -0.1998862277        0.0005689807
 H          6.1029226393       -0.3732435682       -0.0001919299
 H          5.2659709983        0.9084093115       -0.8773192102
 H          5.2661909491        0.9024743299        0.8857093712
 H          3.9364648049       -1.2091910730        0.8796606676
 H          3.9378104214       -1.2056831955       -0.8834422965
 H          2.7161133734        0.9614663628        0.8818513454
 H          2.7159685221        0.9627541411       -0.8805148117
 H          1.3895849235       -1.1531995862        0.8813818234
 H          1.3898647298       -1.1525955467       -0.8824232562
 H          0.1564244205        1.0231429680       -0.8858229326
 H          0.1561400242        1.0226383097        0.8858181967
 H         -3.1576749817       -1.4986129062       -0.8801466425
 H         -3.1568527691       -1.5000612320        0.8779636230
 H         -5.4364135303       -0.9525338958        0.0009930478
 H         -4.7666948232        0.4299205062        0.8792686585
 H         -4.7679740574        0.4301682010       -0.8777737327
          26
        -33.45152239
 C          4.2038145706       -1.3610726159       -0.0326279487
 C          3.2918482087       -0.3212047032        0.6077232381
 C          2.1579601810        0.0891288020       -0.3287259301
 C          1.2475073895        1.1396265594        0.3040024576
 C          0.0764670928        1.5037879660       -0.6041578174
 O         -0.7713898938        0.3712344234       -0.8455256586
 C         -1.7367926216        0.1080339213        0.0301901401
 O         -1.9665333981        0.7948354672        1.0026677964
 C         -2.4858696924       -1.1449715299       -0.3470497364
 C         -3.9111873499       -1.1428450738        0.1923764137
 H          3.6412316364       -2.2567379767       -0.2858422184
 H          4.6485899174       -0.9674018754       -0.9434873104
 H          5.0038262553       -1.6387109967        0.6489171896
 H          3.8768699703        0.5620387984        0.8724460417
 H          2.8696988121       -0.7263587377        1.5301395057
 H          2.5794009488        0.4901608190       -1.2527034337
 H          1.5645996088       -0.7901232954       -0.5892157033
 H          1.8128231298        2.0492344329        0.5091706958
 H          0.8513886735        0.7680509560        1.2522316810
 H          0.4238061156        1.8061595791       -1.5926706194
 H         -0.5239618045        2.2982728374       -0.1504697513
 H         -2.4624155979       -1.2459151753       -1.4317474411
 H         -1.9287861622       -1.9824356452        0.0804170701
 H         -4.4936866792       -0.3537401798       -0.2758782500
 H         -4.3884799895       -2.0973570347       -0.0061324032
 H         -3.9016581374       -0.9650361360        1.2647596994
