 xtb: 6.7.1 (edcfbbe)
          04092507313D

 38 37  0     0  0            999 V2000
    1.9327   -3.5420   -2.3456 C   0  0  0  0  0  0  0  0  0  0  0  0
    3.1706   -2.9282   -1.7111 C   0  0  0  0  0  0  0  0  0  0  0  0
    2.8907   -1.5985   -1.2356 O   0  0  0  0  0  0  0  0  0  0  0  0
    2.3508   -1.4606   -0.0417 C   0  0  0  0  0  0  0  0  0  0  0  0
    2.1446   -2.3651    0.7350 O   0  0  0  0  0  0  0  0  0  0  0  0
    2.0144   -0.0076    0.2491 C   0  0  0  0  0  0  0  0  0  0  0  0
    1.1134    0.5484   -0.8574 C   0  0  0  0  0  0  0  0  0  0  0  0
    1.6835    0.6762   -1.7797 H   0  0  0  0  0  0  0  0  0  0  0  0
    0.4930    1.8619   -0.4280 C   0  0  0  0  0  0  0  0  0  0  0  0
   -0.7092    1.9837   -0.2749 O   0  0  0  0  0  0  0  0  0  0  0  0
    1.3757    2.7947   -0.2374 O   0  0  0  0  0  0  0  0  0  0  0  0
    0.9312    4.0665    0.2915 C   0  0  0  0  0  0  0  0  0  0  0  0
    0.8488    4.0097    1.8078 C   0  0  0  0  0  0  0  0  0  0  0  0
   -0.2510   -0.5913   -1.2843 S   0  0  0  0  0  0  0  0  0  0  0  0
   -1.5828   -0.2519    0.3179 P   0  0  0  0  0  0  0  0  0  0  0  0
   -1.0844    0.3365    2.1329 S   0  0  0  0  0  0  0  0  0  0  0  0
   -2.9584    0.3514   -0.2283 O   0  0  0  0  0  0  0  0  0  0  0  0
   -3.4466    1.6740   -0.0040 C   0  0  0  0  0  0  0  0  0  0  0  0
   -1.9922   -1.8074    0.3075 O   0  0  0  0  0  0  0  0  0  0  0  0
   -2.9592   -2.3321    1.2194 C   0  0  0  0  0  0  0  0  0  0  0  0
    2.1796   -4.5186   -2.7482 H   0  0  0  0  0  0  0  0  0  0  0  0
    1.1474   -3.6528   -1.6007 H   0  0  0  0  0  0  0  0  0  0  0  0
    1.5630   -2.9026   -3.1423 H   0  0  0  0  0  0  0  0  0  0  0  0
    3.9685   -2.7937   -2.4412 H   0  0  0  0  0  0  0  0  0  0  0  0
    3.5174   -3.5357   -0.8704 H   0  0  0  0  0  0  0  0  0  0  0  0
    2.9331    0.5787    0.2904 H   0  0  0  0  0  0  0  0  0  0  0  0
    1.5148    0.0313    1.2195 H   0  0  0  0  0  0  0  0  0  0  0  0
    1.6884    4.7747   -0.0431 H   0  0  0  0  0  0  0  0  0  0  0  0
   -0.0418    4.3061   -0.1438 H   0  0  0  0  0  0  0  0  0  0  0  0
    0.1395    3.2453    2.1217 H   0  0  0  0  0  0  0  0  0  0  0  0
    1.8210    3.7741    2.2310 H   0  0  0  0  0  0  0  0  0  0  0  0
    0.5176    4.9709    2.1860 H   0  0  0  0  0  0  0  0  0  0  0  0
   -3.0676    2.0580    0.9440 H   0  0  0  0  0  0  0  0  0  0  0  0
   -4.5308    1.5894    0.0230 H   0  0  0  0  0  0  0  0  0  0  0  0
   -3.1273    2.3218   -0.8174 H   0  0  0  0  0  0  0  0  0  0  0  0
   -2.8579   -3.4132    1.1666 H   0  0  0  0  0  0  0  0  0  0  0  0
   -3.9607   -2.0238    0.9206 H   0  0  0  0  0  0  0  0  0  0  0  0
   -2.7493   -1.9813    2.2324 H   0  0  0  0  0  0  0  0  0  0  0  0
  1  2  1  0  0  0  0
  2  3  1  0  0  0  0
  3  4  1  0  0  0  0
  4  5  2  0  0  0  0
  4  6  1  0  0  0  0
  6  7  1  0  0  0  0
  7  8  1  0  0  0  0
  7  9  1  0  0  0  0
  9 10  2  0  0  0  0
  9 11  4  0  0  0  0
 11 12  1  0  0  0  0
 12 13  1  0  0  0  0
  7 14  1  0  0  0  0
 14 15  1  0  0  0  0
 15 16  2  0  0  0  0
 15 17  2  0  0  0  0
 17 18  1  0  0  0  0
 15 19  1  0  0  0  0
 19 20  1  0  0  0  0
  1 21  1  0  0  0  0
  1 22  1  0  0  0  0
  1 23  1  0  0  0  0
  2 24  1  0  0  0  0
  2 25  1  0  0  0  0
  6 26  1  0  0  0  0
  6 27  1  0  0  0  0
 12 28  1  0  0  0  0
 12 29  1  0  0  0  0
 13 30  1  0  0  0  0
 13 31  1  0  0  0  0
 13 32  1  0  0  0  0
 18 33  1  0  0  0  0
 18 34  1  0  0  0  0
 18 35  1  0  0  0  0
 20 36  1  0  0  0  0
 20 37  1  0  0  0  0
 20 38  1  0  0  0  0
M  END
