 xtb: 6.7.1 (edcfbbe)
          04092505213D

 41 40  0     0  0            999 V2000
    2.2686    0.6743    3.0764 C   0  0  0  0  0  0  0  0  0  0  0  0
    1.6380   -0.6388    2.6670 C   0  0  0  0  0  0  0  0  0  0  0  0
    2.2725   -1.2576    1.5191 O   0  0  0  0  0  0  0  0  0  0  0  0
    2.6897   -0.6061    0.1517 P   0  0  0  0  0  0  0  0  0  0  0  0
    3.0156   -2.0536   -1.1303 S   0  0  0  0  0  0  0  0  0  0  0  0
    3.9201    0.3107    0.5505 O   0  0  0  0  0  0  0  0  0  0  0  0
    4.4631    1.3765   -0.2491 C   0  0  0  0  0  0  0  0  0  0  0  0
    4.8505    0.9286   -1.6429 C   0  0  0  0  0  0  0  0  0  0  0  0
    1.1778    0.7932   -0.4329 S   0  0  0  0  0  0  0  0  0  0  0  0
    0.0337   -0.4292   -1.1070 C   0  0  0  0  0  0  0  0  0  0  0  0
   -1.2042   -0.9651    0.0958 S   0  0  0  0  0  0  0  0  0  0  0  0
   -2.6909    0.4541   -0.5006 P   0  0  0  0  0  0  0  0  0  0  0  0
   -3.0271    0.4577   -2.4318 S   0  0  0  0  0  0  0  0  0  0  0  0
   -2.1940    1.8690   -0.0184 O   0  0  0  0  0  0  0  0  0  0  0  0
   -2.3504    2.4310    1.3095 C   0  0  0  0  0  0  0  0  0  0  0  0
   -1.5395    1.6862    2.3476 C   0  0  0  0  0  0  0  0  0  0  0  0
   -3.9341    0.1649    0.4402 O   0  0  0  0  0  0  0  0  0  0  0  0
   -4.9512   -0.7968    0.1040 C   0  0  0  0  0  0  0  0  0  0  0  0
   -4.4141   -2.2125    0.0699 C   0  0  0  0  0  0  0  0  0  0  0  0
    1.7937    1.0203    3.9895 H   0  0  0  0  0  0  0  0  0  0  0  0
    3.3327    0.5419    3.2533 H   0  0  0  0  0  0  0  0  0  0  0  0
    2.1329    1.4245    2.2997 H   0  0  0  0  0  0  0  0  0  0  0  0
    0.5786   -0.5162    2.4272 H   0  0  0  0  0  0  0  0  0  0  0  0
    1.7482   -1.3953    3.4455 H   0  0  0  0  0  0  0  0  0  0  0  0
    3.7233    2.1806   -0.2947 H   0  0  0  0  0  0  0  0  0  0  0  0
    5.3351    1.7049    0.3193 H   0  0  0  0  0  0  0  0  0  0  0  0
    5.5314    0.0820   -1.5941 H   0  0  0  0  0  0  0  0  0  0  0  0
    3.9664    0.6237   -2.2015 H   0  0  0  0  0  0  0  0  0  0  0  0
    5.3328    1.7484   -2.1655 H   0  0  0  0  0  0  0  0  0  0  0  0
    0.6084   -1.3049   -1.4190 H   0  0  0  0  0  0  0  0  0  0  0  0
   -0.4800    0.0185   -1.9596 H   0  0  0  0  0  0  0  0  0  0  0  0
   -1.9991    3.4562    1.1845 H   0  0  0  0  0  0  0  0  0  0  0  0
   -3.4125    2.4258    1.5599 H   0  0  0  0  0  0  0  0  0  0  0  0
   -1.9145    0.6710    2.4611 H   0  0  0  0  0  0  0  0  0  0  0  0
   -0.4953    1.6539    2.0476 H   0  0  0  0  0  0  0  0  0  0  0  0
   -1.6216    2.2031    3.2984 H   0  0  0  0  0  0  0  0  0  0  0  0
   -5.6983   -0.6675    0.8883 H   0  0  0  0  0  0  0  0  0  0  0  0
   -5.3766   -0.5245   -0.8666 H   0  0  0  0  0  0  0  0  0  0  0  0
   -3.7182   -2.3273   -0.7602 H   0  0  0  0  0  0  0  0  0  0  0  0
   -3.8955   -2.4463    0.9963 H   0  0  0  0  0  0  0  0  0  0  0  0
   -5.2380   -2.9055   -0.0672 H   0  0  0  0  0  0  0  0  0  0  0  0
  1  2  1  0  0  0  0
  2  3  1  0  0  0  0
  3  4  2  0  0  0  0
  4  5  2  0  0  0  0
  4  6  2  0  0  0  0
  6  7  1  0  0  0  0
  7  8  1  0  0  0  0
  4  9  1  0  0  0  0
  9 10  1  0  0  0  0
 10 11  1  0  0  0  0
 11 12  1  0  0  0  0
 12 13  2  0  0  0  0
 12 14  2  0  0  0  0
 14 15  1  0  0  0  0
 15 16  1  0  0  0  0
 12 17  2  0  0  0  0
 17 18  1  0  0  0  0
 18 19  1  0  0  0  0
  1 20  1  0  0  0  0
  1 21  1  0  0  0  0
  1 22  1  0  0  0  0
  2 23  1  0  0  0  0
  2 24  1  0  0  0  0
  7 25  1  0  0  0  0
  7 26  1  0  0  0  0
  8 27  1  0  0  0  0
  8 28  1  0  0  0  0
  8 29  1  0  0  0  0
 10 30  1  0  0  0  0
 10 31  1  0  0  0  0
 15 32  1  0  0  0  0
 15 33  1  0  0  0  0
 16 34  1  0  0  0  0
 16 35  1  0  0  0  0
 16 36  1  0  0  0  0
 18 37  1  0  0  0  0
 18 38  1  0  0  0  0
 19 39  1  0  0  0  0
 19 40  1  0  0  0  0
 19 41  1  0  0  0  0
M  END
