 xtb: 6.7.1 (edcfbbe)
          04092505213D

 41 40  0     0  0            999 V2000
    1.8485   -0.5744   -2.9249 C   0  0  0  0  0  0  0  0  0  0  0  0
    3.2121   -0.2605   -2.3442 C   0  0  0  0  0  0  0  0  0  0  0  0
    3.3357   -0.6938   -0.9786 O   0  0  0  0  0  0  0  0  0  0  0  0
    2.5446   -0.0136    0.2233 P   0  0  0  0  0  0  0  0  0  0  0  0
    2.4187    1.9370    0.1953 S   0  0  0  0  0  0  0  0  0  0  0  0
    3.3674   -0.5029    1.4774 O   0  0  0  0  0  0  0  0  0  0  0  0
    3.6618   -1.9009    1.7445 C   0  0  0  0  0  0  0  0  0  0  0  0
    2.8630   -2.3847    2.9386 C   0  0  0  0  0  0  0  0  0  0  0  0
    0.7209   -1.1006    0.3118 S   0  0  0  0  0  0  0  0  0  0  0  0
   -0.1186    0.0640    1.4418 C   0  0  0  0  0  0  0  0  0  0  0  0
   -1.8885   -0.2585    1.5392 S   0  0  0  0  0  0  0  0  0  0  0  0
   -2.4698    0.4354   -0.3957 P   0  0  0  0  0  0  0  0  0  0  0  0
   -1.1265    1.4747   -1.3884 S   0  0  0  0  0  0  0  0  0  0  0  0
   -3.8598    1.1483   -0.1536 O   0  0  0  0  0  0  0  0  0  0  0  0
   -3.9643    2.5498    0.1502 C   0  0  0  0  0  0  0  0  0  0  0  0
   -3.3804    2.8932    1.5066 C   0  0  0  0  0  0  0  0  0  0  0  0
   -3.0748   -0.8143   -1.1509 O   0  0  0  0  0  0  0  0  0  0  0  0
   -2.2767   -1.8181   -1.8077 C   0  0  0  0  0  0  0  0  0  0  0  0
   -2.0678   -3.0241   -0.9122 C   0  0  0  0  0  0  0  0  0  0  0  0
    1.5962   -1.6182   -2.7539 H   0  0  0  0  0  0  0  0  0  0  0  0
    1.0898    0.0581   -2.4645 H   0  0  0  0  0  0  0  0  0  0  0  0
    1.8588   -0.3753   -3.9917 H   0  0  0  0  0  0  0  0  0  0  0  0
    3.4107    0.8149   -2.3873 H   0  0  0  0  0  0  0  0  0  0  0  0
    4.0040   -0.8061   -2.8598 H   0  0  0  0  0  0  0  0  0  0  0  0
    3.4438   -2.4901    0.8517 H   0  0  0  0  0  0  0  0  0  0  0  0
    4.7334   -1.9245    1.9474 H   0  0  0  0  0  0  0  0  0  0  0  0
    3.0219   -1.7216    3.7847 H   0  0  0  0  0  0  0  0  0  0  0  0
    1.8016   -2.4156    2.7048 H   0  0  0  0  0  0  0  0  0  0  0  0
    3.1937   -3.3843    3.2022 H   0  0  0  0  0  0  0  0  0  0  0  0
    0.0595    1.0745    1.0654 H   0  0  0  0  0  0  0  0  0  0  0  0
    0.2744   -0.0547    2.4491 H   0  0  0  0  0  0  0  0  0  0  0  0
   -3.4609    3.1171   -0.6397 H   0  0  0  0  0  0  0  0  0  0  0  0
   -5.0374    2.7432    0.1154 H   0  0  0  0  0  0  0  0  0  0  0  0
   -2.2973    2.7741    1.4901 H   0  0  0  0  0  0  0  0  0  0  0  0
   -3.6123    3.9264    1.7453 H   0  0  0  0  0  0  0  0  0  0  0  0
   -3.7956    2.2428    2.2724 H   0  0  0  0  0  0  0  0  0  0  0  0
   -2.8533   -2.0826   -2.6962 H   0  0  0  0  0  0  0  0  0  0  0  0
   -1.3223   -1.3769   -2.1135 H   0  0  0  0  0  0  0  0  0  0  0  0
   -1.5867   -3.8104   -1.4845 H   0  0  0  0  0  0  0  0  0  0  0  0
   -1.4347   -2.7692   -0.0650 H   0  0  0  0  0  0  0  0  0  0  0  0
   -3.0259   -3.3798   -0.5443 H   0  0  0  0  0  0  0  0  0  0  0  0
  1  2  1  0  0  0  0
  2  3  1  0  0  0  0
  3  4  2  0  0  0  0
  4  5  2  0  0  0  0
  4  6  2  0  0  0  0
  6  7  1  0  0  0  0
  7  8  1  0  0  0  0
  4  9  1  0  0  0  0
  9 10  1  0  0  0  0
 10 11  1  0  0  0  0
 11 12  1  0  0  0  0
 12 13  2  0  0  0  0
 12 14  2  0  0  0  0
 14 15  1  0  0  0  0
 15 16  1  0  0  0  0
 12 17  2  0  0  0  0
 17 18  1  0  0  0  0
 18 19  1  0  0  0  0
  1 20  1  0  0  0  0
  1 21  1  0  0  0  0
  1 22  1  0  0  0  0
  2 23  1  0  0  0  0
  2 24  1  0  0  0  0
  7 25  1  0  0  0  0
  7 26  1  0  0  0  0
  8 27  1  0  0  0  0
  8 28  1  0  0  0  0
  8 29  1  0  0  0  0
 10 30  1  0  0  0  0
 10 31  1  0  0  0  0
 15 32  1  0  0  0  0
 15 33  1  0  0  0  0
 16 34  1  0  0  0  0
 16 35  1  0  0  0  0
 16 36  1  0  0  0  0
 18 37  1  0  0  0  0
 18 38  1  0  0  0  0
 19 39  1  0  0  0  0
 19 40  1  0  0  0  0
 19 41  1  0  0  0  0
M  END
