 xtb: 6.7.1 (edcfbbe)
          04092514023D

 41 40  0     0  0            999 V2000
    4.8169   -1.5597   -0.7824 C   0  0  0  0  0  0  0  0  0  0  0  0
    4.7530   -0.1267   -0.2935 C   0  0  0  0  0  0  0  0  0  0  0  0
    3.5560    0.1523    0.4546 O   0  0  0  0  0  0  0  0  0  0  0  0
    2.1146    0.2923   -0.2037 P   0  0  0  0  0  0  0  0  0  0  0  0
    2.0835    1.0721   -2.0056 S   0  0  0  0  0  0  0  0  0  0  0  0
    1.3340    1.0939    0.9234 O   0  0  0  0  0  0  0  0  0  0  0  0
    1.2653    2.5342    0.9215 C   0  0  0  0  0  0  0  0  0  0  0  0
    2.6099    3.1805    1.1802 C   0  0  0  0  0  0  0  0  0  0  0  0
    1.2823   -1.6281    0.0413 S   0  0  0  0  0  0  0  0  0  0  0  0
    0.0335   -1.6190   -1.2973 C   0  0  0  0  0  0  0  0  0  0  0  0
   -1.6134   -2.1187   -0.7376 S   0  0  0  0  0  0  0  0  0  0  0  0
   -2.2498   -0.3174    0.1279 P   0  0  0  0  0  0  0  0  0  0  0  0
   -1.7507    1.3586   -0.7748 S   0  0  0  0  0  0  0  0  0  0  0  0
   -1.6786   -0.4904    1.5958 O   0  0  0  0  0  0  0  0  0  0  0  0
   -1.7933    0.5689    2.5728 C   0  0  0  0  0  0  0  0  0  0  0  0
   -0.7971    0.2937    3.6796 C   0  0  0  0  0  0  0  0  0  0  0  0
   -3.8101   -0.5103    0.3737 O   0  0  0  0  0  0  0  0  0  0  0  0
   -4.8332   -0.0860   -0.5454 C   0  0  0  0  0  0  0  0  0  0  0  0
   -4.8473   -0.9012   -1.8222 C   0  0  0  0  0  0  0  0  0  0  0  0
    4.6781   -2.2513    0.0442 H   0  0  0  0  0  0  0  0  0  0  0  0
    4.0414   -1.7381   -1.5254 H   0  0  0  0  0  0  0  0  0  0  0  0
    5.7871   -1.7340   -1.2380 H   0  0  0  0  0  0  0  0  0  0  0  0
    4.8032    0.5679   -1.1381 H   0  0  0  0  0  0  0  0  0  0  0  0
    5.5566    0.0886    0.4128 H   0  0  0  0  0  0  0  0  0  0  0  0
    0.8535    2.8574   -0.0408 H   0  0  0  0  0  0  0  0  0  0  0  0
    0.5524    2.7640    1.7149 H   0  0  0  0  0  0  0  0  0  0  0  0
    2.4746    4.2544    1.2674 H   0  0  0  0  0  0  0  0  0  0  0  0
    3.0445    2.7936    2.0982 H   0  0  0  0  0  0  0  0  0  0  0  0
    3.2886    2.9777    0.3526 H   0  0  0  0  0  0  0  0  0  0  0  0
    0.3282   -2.3578   -2.0383 H   0  0  0  0  0  0  0  0  0  0  0  0
   -0.0090   -0.6189   -1.7364 H   0  0  0  0  0  0  0  0  0  0  0  0
   -1.5897    1.5226    2.0724 H   0  0  0  0  0  0  0  0  0  0  0  0
   -2.8202    0.5766    2.9469 H   0  0  0  0  0  0  0  0  0  0  0  0
    0.2102    0.2600    3.2718 H   0  0  0  0  0  0  0  0  0  0  0  0
   -0.8606    1.0823    4.4228 H   0  0  0  0  0  0  0  0  0  0  0  0
   -1.0179   -0.6617    4.1466 H   0  0  0  0  0  0  0  0  0  0  0  0
   -5.7576   -0.2152    0.0202 H   0  0  0  0  0  0  0  0  0  0  0  0
   -4.6773    0.9740   -0.7681 H   0  0  0  0  0  0  0  0  0  0  0  0
   -5.6866   -0.5838   -2.4338 H   0  0  0  0  0  0  0  0  0  0  0  0
   -3.9253   -0.7408   -2.3794 H   0  0  0  0  0  0  0  0  0  0  0  0
   -4.9434   -1.9606   -1.6000 H   0  0  0  0  0  0  0  0  0  0  0  0
  1  2  1  0  0  0  0
  2  3  1  0  0  0  0
  3  4  2  0  0  0  0
  4  5  2  0  0  0  0
  4  6  2  0  0  0  0
  6  7  1  0  0  0  0
  7  8  1  0  0  0  0
  4  9  1  0  0  0  0
  9 10  1  0  0  0  0
 10 11  1  0  0  0  0
 11 12  1  0  0  0  0
 12 13  2  0  0  0  0
 12 14  2  0  0  0  0
 14 15  1  0  0  0  0
 15 16  1  0  0  0  0
 12 17  2  0  0  0  0
 17 18  1  0  0  0  0
 18 19  1  0  0  0  0
  1 20  1  0  0  0  0
  1 21  1  0  0  0  0
  1 22  1  0  0  0  0
  2 23  1  0  0  0  0
  2 24  1  0  0  0  0
  7 25  1  0  0  0  0
  7 26  1  0  0  0  0
  8 27  1  0  0  0  0
  8 28  1  0  0  0  0
  8 29  1  0  0  0  0
 10 30  1  0  0  0  0
 10 31  1  0  0  0  0
 15 32  1  0  0  0  0
 15 33  1  0  0  0  0
 16 34  1  0  0  0  0
 16 35  1  0  0  0  0
 16 36  1  0  0  0  0
 18 37  1  0  0  0  0
 18 38  1  0  0  0  0
 19 39  1  0  0  0  0
 19 40  1  0  0  0  0
 19 41  1  0  0  0  0
M  END
