 xtb: 6.7.1 (edcfbbe)
          04092507313D

 38 37  0     0  0            999 V2000
    2.5004   -3.3532   -0.0701 C   0  0  0  0  0  0  0  0  0  0  0  0
    3.0516   -1.9590    0.1803 C   0  0  0  0  0  0  0  0  0  0  0  0
    2.2039   -0.9582   -0.4142 O   0  0  0  0  0  0  0  0  0  0  0  0
    2.3527   -0.7005   -1.7046 C   0  0  0  0  0  0  0  0  0  0  0  0
    3.2093   -1.1953   -2.4010 O   0  0  0  0  0  0  0  0  0  0  0  0
    1.3435    0.3056   -2.2169 C   0  0  0  0  0  0  0  0  0  0  0  0
    0.2463    0.6321   -1.2155 C   0  0  0  0  0  0  0  0  0  0  0  0
   -0.4103    1.4124   -1.6169 H   0  0  0  0  0  0  0  0  0  0  0  0
    0.7836    1.1315    0.1119 C   0  0  0  0  0  0  0  0  0  0  0  0
    0.3094    0.7886    1.1756 O   0  0  0  0  0  0  0  0  0  0  0  0
    1.7482    1.9992   -0.0411 O   0  0  0  0  0  0  0  0  0  0  0  0
    2.3156    2.6036    1.1411 C   0  0  0  0  0  0  0  0  0  0  0  0
    3.3384    1.6876    1.7916 C   0  0  0  0  0  0  0  0  0  0  0  0
   -0.8008   -0.8233   -0.8665 S   0  0  0  0  0  0  0  0  0  0  0  0
   -2.1497    0.0935    0.4914 P   0  0  0  0  0  0  0  0  0  0  0  0
   -2.4232    2.0244    0.3138 S   0  0  0  0  0  0  0  0  0  0  0  0
   -3.4856   -0.7412    0.1520 O   0  0  0  0  0  0  0  0  0  0  0  0
   -4.1703   -0.5789   -1.0921 C   0  0  0  0  0  0  0  0  0  0  0  0
   -1.9455   -0.4116    1.9743 O   0  0  0  0  0  0  0  0  0  0  0  0
   -1.5303   -1.7536    2.2849 C   0  0  0  0  0  0  0  0  0  0  0  0
    2.5338   -3.5812   -1.1326 H   0  0  0  0  0  0  0  0  0  0  0  0
    3.1018   -4.0787    0.4675 H   0  0  0  0  0  0  0  0  0  0  0  0
    1.4696   -3.4159    0.2696 H   0  0  0  0  0  0  0  0  0  0  0  0
    4.0564   -1.8572   -0.2393 H   0  0  0  0  0  0  0  0  0  0  0  0
    3.0579   -1.7173    1.2437 H   0  0  0  0  0  0  0  0  0  0  0  0
    0.9126   -0.0943   -3.1361 H   0  0  0  0  0  0  0  0  0  0  0  0
    1.8848    1.2204   -2.4693 H   0  0  0  0  0  0  0  0  0  0  0  0
    2.7745    3.5210    0.7730 H   0  0  0  0  0  0  0  0  0  0  0  0
    1.5022    2.8353    1.8347 H   0  0  0  0  0  0  0  0  0  0  0  0
    3.8019    2.2054    2.6247 H   0  0  0  0  0  0  0  0  0  0  0  0
    2.8508    0.7889    2.1618 H   0  0  0  0  0  0  0  0  0  0  0  0
    4.1036    1.4078    1.0723 H   0  0  0  0  0  0  0  0  0  0  0  0
   -4.3153    0.4821   -1.3031 H   0  0  0  0  0  0  0  0  0  0  0  0
   -5.1293   -1.0748   -0.9668 H   0  0  0  0  0  0  0  0  0  0  0  0
   -3.5977   -1.0441   -1.8946 H   0  0  0  0  0  0  0  0  0  0  0  0
   -1.6592   -1.8486    3.3599 H   0  0  0  0  0  0  0  0  0  0  0  0
   -0.4816   -1.8760    2.0135 H   0  0  0  0  0  0  0  0  0  0  0  0
   -2.1490   -2.4753    1.7537 H   0  0  0  0  0  0  0  0  0  0  0  0
  1  2  1  0  0  0  0
  2  3  1  0  0  0  0
  3  4  1  0  0  0  0
  4  5  2  0  0  0  0
  4  6  1  0  0  0  0
  6  7  1  0  0  0  0
  7  8  1  0  0  0  0
  7  9  1  0  0  0  0
  9 10  2  0  0  0  0
  9 11  4  0  0  0  0
 11 12  1  0  0  0  0
 12 13  1  0  0  0  0
  7 14  1  0  0  0  0
 14 15  1  0  0  0  0
 15 16  2  0  0  0  0
 15 17  1  0  0  0  0
 17 18  1  0  0  0  0
 15 19  2  0  0  0  0
 19 20  1  0  0  0  0
  1 21  1  0  0  0  0
  1 22  1  0  0  0  0
  1 23  1  0  0  0  0
  2 24  1  0  0  0  0
  2 25  1  0  0  0  0
  6 26  1  0  0  0  0
  6 27  1  0  0  0  0
 12 28  1  0  0  0  0
 12 29  1  0  0  0  0
 13 30  1  0  0  0  0
 13 31  1  0  0  0  0
 13 32  1  0  0  0  0
 18 33  1  0  0  0  0
 18 34  1  0  0  0  0
 18 35  1  0  0  0  0
 20 36  1  0  0  0  0
 20 37  1  0  0  0  0
 20 38  1  0  0  0  0
M  END
