 xtb: 6.7.1 (edcfbbe)
          04092505213D

 41 40  0     0  0            999 V2000
    4.8368    0.0842   -1.4032 C   0  0  0  0  0  0  0  0  0  0  0  0
    4.0242    1.3588   -1.3224 C   0  0  0  0  0  0  0  0  0  0  0  0
    3.2903    1.4735   -0.0816 O   0  0  0  0  0  0  0  0  0  0  0  0
    2.1825    0.4892    0.4739 P   0  0  0  0  0  0  0  0  0  0  0  0
    1.2899    1.3509    1.9824 S   0  0  0  0  0  0  0  0  0  0  0  0
    2.9065   -0.8872    0.8369 O   0  0  0  0  0  0  0  0  0  0  0  0
    2.9463   -1.4591    2.1592 C   0  0  0  0  0  0  0  0  0  0  0  0
    1.9738   -2.6141    2.2910 C   0  0  0  0  0  0  0  0  0  0  0  0
    1.1136   -0.0134   -1.2962 S   0  0  0  0  0  0  0  0  0  0  0  0
    0.2378   -1.4845   -0.7004 C   0  0  0  0  0  0  0  0  0  0  0  0
   -0.9859   -1.1351    0.5886 S   0  0  0  0  0  0  0  0  0  0  0  0
   -2.3392   -0.0652   -0.6588 P   0  0  0  0  0  0  0  0  0  0  0  0
   -2.4659   -0.6911   -2.5053 S   0  0  0  0  0  0  0  0  0  0  0  0
   -1.8992    1.4484   -0.5812 O   0  0  0  0  0  0  0  0  0  0  0  0
   -1.9563    2.2360    0.6349 C   0  0  0  0  0  0  0  0  0  0  0  0
   -1.2716    3.5558    0.3538 C   0  0  0  0  0  0  0  0  0  0  0  0
   -3.6933   -0.0549    0.1748 O   0  0  0  0  0  0  0  0  0  0  0  0
   -4.6769   -1.1025    0.0704 C   0  0  0  0  0  0  0  0  0  0  0  0
   -4.1620   -2.4333    0.5784 C   0  0  0  0  0  0  0  0  0  0  0  0
    4.1790   -0.7817   -1.4257 H   0  0  0  0  0  0  0  0  0  0  0  0
    5.4312    0.1011   -2.3114 H   0  0  0  0  0  0  0  0  0  0  0  0
    5.4974    0.0043   -0.5438 H   0  0  0  0  0  0  0  0  0  0  0  0
    3.3132    1.4242   -2.1499 H   0  0  0  0  0  0  0  0  0  0  0  0
    4.6626    2.2440   -1.3160 H   0  0  0  0  0  0  0  0  0  0  0  0
    3.9774   -1.7931    2.2860 H   0  0  0  0  0  0  0  0  0  0  0  0
    2.7193   -0.6778    2.8913 H   0  0  0  0  0  0  0  0  0  0  0  0
    2.1760   -3.3705    1.5374 H   0  0  0  0  0  0  0  0  0  0  0  0
    2.0897   -3.0574    3.2748 H   0  0  0  0  0  0  0  0  0  0  0  0
    0.9483   -2.2619    2.1863 H   0  0  0  0  0  0  0  0  0  0  0  0
    0.9491   -2.1942   -0.2871 H   0  0  0  0  0  0  0  0  0  0  0  0
   -0.2716   -1.8921   -1.5747 H   0  0  0  0  0  0  0  0  0  0  0  0
   -3.0060    2.3718    0.9006 H   0  0  0  0  0  0  0  0  0  0  0  0
   -1.4462    1.6906    1.4350 H   0  0  0  0  0  0  0  0  0  0  0  0
   -1.7436    4.0510   -0.4899 H   0  0  0  0  0  0  0  0  0  0  0  0
   -1.3418    4.1845    1.2354 H   0  0  0  0  0  0  0  0  0  0  0  0
   -0.2216    3.3899    0.1243 H   0  0  0  0  0  0  0  0  0  0  0  0
   -5.5082   -0.7342    0.6733 H   0  0  0  0  0  0  0  0  0  0  0  0
   -4.9818   -1.1822   -0.9774 H   0  0  0  0  0  0  0  0  0  0  0  0
   -3.7487   -2.3237    1.5780 H   0  0  0  0  0  0  0  0  0  0  0  0
   -4.9803   -3.1458    0.6023 H   0  0  0  0  0  0  0  0  0  0  0  0
   -3.3860   -2.8105   -0.0857 H   0  0  0  0  0  0  0  0  0  0  0  0
  1  2  1  0  0  0  0
  2  3  1  0  0  0  0
  3  4  2  0  0  0  0
  4  5  2  0  0  0  0
  4  6  2  0  0  0  0
  6  7  1  0  0  0  0
  7  8  1  0  0  0  0
  4  9  1  0  0  0  0
  9 10  1  0  0  0  0
 10 11  1  0  0  0  0
 11 12  1  0  0  0  0
 12 13  2  0  0  0  0
 12 14  2  0  0  0  0
 14 15  1  0  0  0  0
 15 16  1  0  0  0  0
 12 17  2  0  0  0  0
 17 18  1  0  0  0  0
 18 19  1  0  0  0  0
  1 20  1  0  0  0  0
  1 21  1  0  0  0  0
  1 22  1  0  0  0  0
  2 23  1  0  0  0  0
  2 24  1  0  0  0  0
  7 25  1  0  0  0  0
  7 26  1  0  0  0  0
  8 27  1  0  0  0  0
  8 28  1  0  0  0  0
  8 29  1  0  0  0  0
 10 30  1  0  0  0  0
 10 31  1  0  0  0  0
 15 32  1  0  0  0  0
 15 33  1  0  0  0  0
 16 34  1  0  0  0  0
 16 35  1  0  0  0  0
 16 36  1  0  0  0  0
 18 37  1  0  0  0  0
 18 38  1  0  0  0  0
 19 39  1  0  0  0  0
 19 40  1  0  0  0  0
 19 41  1  0  0  0  0
M  END
