 xtb: 6.7.1 (edcfbbe)
          04092514033D

 41 40  0     0  0            999 V2000
    5.8248    0.5320   -0.7917 C   0  0  0  0  0  0  0  0  0  0  0  0
    4.4846    1.2392   -0.8597 C   0  0  0  0  0  0  0  0  0  0  0  0
    3.4389    0.3048   -1.2070 O   0  0  0  0  0  0  0  0  0  0  0  0
    2.3455   -0.1868   -0.1602 P   0  0  0  0  0  0  0  0  0  0  0  0
    3.0532   -0.8353    1.5514 S   0  0  0  0  0  0  0  0  0  0  0  0
    1.5362   -1.2219   -1.0321 O   0  0  0  0  0  0  0  0  0  0  0  0
    1.7924   -2.6453   -1.0515 C   0  0  0  0  0  0  0  0  0  0  0  0
    0.5500   -3.3805   -0.5908 C   0  0  0  0  0  0  0  0  0  0  0  0
    0.9976    1.4342   -0.0763 S   0  0  0  0  0  0  0  0  0  0  0  0
    0.2479    1.0835    1.5399 C   0  0  0  0  0  0  0  0  0  0  0  0
   -0.9195   -0.3070    1.5496 S   0  0  0  0  0  0  0  0  0  0  0  0
   -2.3455    0.3508    0.1173 P   0  0  0  0  0  0  0  0  0  0  0  0
   -2.0318   -0.0753   -1.7734 S   0  0  0  0  0  0  0  0  0  0  0  0
   -2.4374    1.8853    0.4993 O   0  0  0  0  0  0  0  0  0  0  0  0
   -2.7943    2.9006   -0.4642 C   0  0  0  0  0  0  0  0  0  0  0  0
   -4.2730    2.8831   -0.7922 C   0  0  0  0  0  0  0  0  0  0  0  0
   -3.7210   -0.2110    0.6876 O   0  0  0  0  0  0  0  0  0  0  0  0
   -4.2692   -1.4837    0.3087 C   0  0  0  0  0  0  0  0  0  0  0  0
   -3.5233   -2.6359    0.9513 C   0  0  0  0  0  0  0  0  0  0  0  0
    5.8292   -0.1914    0.0206 H   0  0  0  0  0  0  0  0  0  0  0  0
    6.0225    0.0148   -1.7264 H   0  0  0  0  0  0  0  0  0  0  0  0
    6.6045    1.2667   -0.6167 H   0  0  0  0  0  0  0  0  0  0  0  0
    4.4719    1.9906   -1.6514 H   0  0  0  0  0  0  0  0  0  0  0  0
    4.2462    1.7126    0.0968 H   0  0  0  0  0  0  0  0  0  0  0  0
    2.0407   -2.8879   -2.0864 H   0  0  0  0  0  0  0  0  0  0  0  0
    2.6470   -2.8679   -0.4049 H   0  0  0  0  0  0  0  0  0  0  0  0
    0.6970   -4.4485   -0.7143 H   0  0  0  0  0  0  0  0  0  0  0  0
    0.3519   -3.1627    0.4570 H   0  0  0  0  0  0  0  0  0  0  0  0
   -0.3033   -3.0627   -1.1857 H   0  0  0  0  0  0  0  0  0  0  0  0
   -0.2630    1.9922    1.8463 H   0  0  0  0  0  0  0  0  0  0  0  0
    1.0306    0.8080    2.2486 H   0  0  0  0  0  0  0  0  0  0  0  0
   -2.5004    3.8346    0.0167 H   0  0  0  0  0  0  0  0  0  0  0  0
   -2.1969    2.7454   -1.3683 H   0  0  0  0  0  0  0  0  0  0  0  0
   -4.5359    1.9445   -1.2781 H   0  0  0  0  0  0  0  0  0  0  0  0
   -4.8660    2.9913    0.1117 H   0  0  0  0  0  0  0  0  0  0  0  0
   -4.4944    3.7030   -1.4692 H   0  0  0  0  0  0  0  0  0  0  0  0
   -5.3054   -1.4382    0.6474 H   0  0  0  0  0  0  0  0  0  0  0  0
   -4.2371   -1.5638   -0.7832 H   0  0  0  0  0  0  0  0  0  0  0  0
   -3.5136   -2.5275    2.0325 H   0  0  0  0  0  0  0  0  0  0  0  0
   -4.0081   -3.5704    0.6865 H   0  0  0  0  0  0  0  0  0  0  0  0
   -2.4936   -2.6567    0.5948 H   0  0  0  0  0  0  0  0  0  0  0  0
  1  2  1  0  0  0  0
  2  3  1  0  0  0  0
  3  4  2  0  0  0  0
  4  5  2  0  0  0  0
  4  6  2  0  0  0  0
  6  7  1  0  0  0  0
  7  8  1  0  0  0  0
  4  9  1  0  0  0  0
  9 10  1  0  0  0  0
 10 11  1  0  0  0  0
 11 12  1  0  0  0  0
 12 13  2  0  0  0  0
 12 14  2  0  0  0  0
 14 15  1  0  0  0  0
 15 16  1  0  0  0  0
 12 17  2  0  0  0  0
 17 18  1  0  0  0  0
 18 19  1  0  0  0  0
  1 20  1  0  0  0  0
  1 21  1  0  0  0  0
  1 22  1  0  0  0  0
  2 23  1  0  0  0  0
  2 24  1  0  0  0  0
  7 25  1  0  0  0  0
  7 26  1  0  0  0  0
  8 27  1  0  0  0  0
  8 28  1  0  0  0  0
  8 29  1  0  0  0  0
 10 30  1  0  0  0  0
 10 31  1  0  0  0  0
 15 32  1  0  0  0  0
 15 33  1  0  0  0  0
 16 34  1  0  0  0  0
 16 35  1  0  0  0  0
 16 36  1  0  0  0  0
 18 37  1  0  0  0  0
 18 38  1  0  0  0  0
 19 39  1  0  0  0  0
 19 40  1  0  0  0  0
 19 41  1  0  0  0  0
M  END
