 xtb: 6.7.1 (edcfbbe)
          04092505213D

 41 40  0     0  0            999 V2000
    3.1856    2.1921   -1.6346 C   0  0  0  0  0  0  0  0  0  0  0  0
    3.7652    1.8388   -0.2800 C   0  0  0  0  0  0  0  0  0  0  0  0
    3.5679    0.4491    0.0270 O   0  0  0  0  0  0  0  0  0  0  0  0
    2.1779   -0.1002    0.5667 P   0  0  0  0  0  0  0  0  0  0  0  0
    1.3166    1.0905    1.8698 S   0  0  0  0  0  0  0  0  0  0  0  0
    2.5497   -1.5660    1.0384 O   0  0  0  0  0  0  0  0  0  0  0  0
    3.7334   -1.8970    1.8009 C   0  0  0  0  0  0  0  0  0  0  0  0
    3.7557   -1.2166    3.1532 C   0  0  0  0  0  0  0  0  0  0  0  0
    1.0722   -0.5826   -1.1891 S   0  0  0  0  0  0  0  0  0  0  0  0
   -0.0577   -1.8055   -0.4702 C   0  0  0  0  0  0  0  0  0  0  0  0
   -1.2658   -1.1000    0.6753 S   0  0  0  0  0  0  0  0  0  0  0  0
   -2.3588    0.0011   -0.7940 P   0  0  0  0  0  0  0  0  0  0  0  0
   -2.4351   -0.8138   -2.5695 S   0  0  0  0  0  0  0  0  0  0  0  0
   -1.7179    1.4363   -0.8981 O   0  0  0  0  0  0  0  0  0  0  0  0
   -1.6670    2.3777    0.2050 C   0  0  0  0  0  0  0  0  0  0  0  0
   -0.7337    3.5002   -0.1938 C   0  0  0  0  0  0  0  0  0  0  0  0
   -3.7240    0.3257   -0.0479 O   0  0  0  0  0  0  0  0  0  0  0  0
   -4.5573   -0.6345    0.6290 C   0  0  0  0  0  0  0  0  0  0  0  0
   -4.9231   -1.8158   -0.2448 C   0  0  0  0  0  0  0  0  0  0  0  0
    3.3851    3.2361   -1.8533 H   0  0  0  0  0  0  0  0  0  0  0  0
    3.6263    1.5692   -2.4083 H   0  0  0  0  0  0  0  0  0  0  0  0
    2.1080    2.0276   -1.6371 H   0  0  0  0  0  0  0  0  0  0  0  0
    3.3049    2.4389    0.5130 H   0  0  0  0  0  0  0  0  0  0  0  0
    4.8482    1.9686   -0.2615 H   0  0  0  0  0  0  0  0  0  0  0  0
    3.6740   -2.9822    1.8997 H   0  0  0  0  0  0  0  0  0  0  0  0
    4.6090   -1.6237    1.2088 H   0  0  0  0  0  0  0  0  0  0  0  0
    2.8489   -1.4464    3.7080 H   0  0  0  0  0  0  0  0  0  0  0  0
    4.6183   -1.5612    3.7150 H   0  0  0  0  0  0  0  0  0  0  0  0
    3.8193   -0.1363    3.0307 H   0  0  0  0  0  0  0  0  0  0  0  0
    0.5072   -2.5527    0.0801 H   0  0  0  0  0  0  0  0  0  0  0  0
   -0.5873   -2.2431   -1.3180 H   0  0  0  0  0  0  0  0  0  0  0  0
   -2.6809    2.7385    0.3846 H   0  0  0  0  0  0  0  0  0  0  0  0
   -1.3013    1.8603    1.0974 H   0  0  0  0  0  0  0  0  0  0  0  0
   -1.0574    3.9397   -1.1327 H   0  0  0  0  0  0  0  0  0  0  0  0
   -0.7359    4.2547    0.5859 H   0  0  0  0  0  0  0  0  0  0  0  0
    0.2775    3.1193   -0.3100 H   0  0  0  0  0  0  0  0  0  0  0  0
   -4.0312   -0.9654    1.5289 H   0  0  0  0  0  0  0  0  0  0  0  0
   -5.4393   -0.0550    0.9073 H   0  0  0  0  0  0  0  0  0  0  0  0
   -5.6195   -2.4554    0.2877 H   0  0  0  0  0  0  0  0  0  0  0  0
   -5.3800   -1.4754   -1.1709 H   0  0  0  0  0  0  0  0  0  0  0  0
   -4.0316   -2.3896   -0.4937 H   0  0  0  0  0  0  0  0  0  0  0  0
  1  2  1  0  0  0  0
  2  3  1  0  0  0  0
  3  4  2  0  0  0  0
  4  5  2  0  0  0  0
  4  6  2  0  0  0  0
  6  7  1  0  0  0  0
  7  8  1  0  0  0  0
  4  9  1  0  0  0  0
  9 10  1  0  0  0  0
 10 11  1  0  0  0  0
 11 12  1  0  0  0  0
 12 13  2  0  0  0  0
 12 14  2  0  0  0  0
 14 15  1  0  0  0  0
 15 16  1  0  0  0  0
 12 17  2  0  0  0  0
 17 18  1  0  0  0  0
 18 19  1  0  0  0  0
  1 20  1  0  0  0  0
  1 21  1  0  0  0  0
  1 22  1  0  0  0  0
  2 23  1  0  0  0  0
  2 24  1  0  0  0  0
  7 25  1  0  0  0  0
  7 26  1  0  0  0  0
  8 27  1  0  0  0  0
  8 28  1  0  0  0  0
  8 29  1  0  0  0  0
 10 30  1  0  0  0  0
 10 31  1  0  0  0  0
 15 32  1  0  0  0  0
 15 33  1  0  0  0  0
 16 34  1  0  0  0  0
 16 35  1  0  0  0  0
 16 36  1  0  0  0  0
 18 37  1  0  0  0  0
 18 38  1  0  0  0  0
 19 39  1  0  0  0  0
 19 40  1  0  0  0  0
 19 41  1  0  0  0  0
M  END
