 xtb: 6.7.1 (edcfbbe)
          04092505213D

 41 40  0     0  0            999 V2000
    3.3820   -2.9607   -0.0698 C   0  0  0  0  0  0  0  0  0  0  0  0
    3.9027   -2.0811   -1.1848 C   0  0  0  0  0  0  0  0  0  0  0  0
    3.9701   -0.6815   -0.8123 O   0  0  0  0  0  0  0  0  0  0  0  0
    2.8042    0.1918   -0.2264 P   0  0  0  0  0  0  0  0  0  0  0  0
    3.1487    2.1086   -0.4345 S   0  0  0  0  0  0  0  0  0  0  0  0
    2.7518   -0.2955    1.2876 O   0  0  0  0  0  0  0  0  0  0  0  0
    1.9815    0.3611    2.3101 C   0  0  0  0  0  0  0  0  0  0  0  0
    0.7908   -0.4929    2.7015 C   0  0  0  0  0  0  0  0  0  0  0  0
    1.0372   -0.5292   -1.2032 S   0  0  0  0  0  0  0  0  0  0  0  0
    0.2082    1.0534   -1.4497 C   0  0  0  0  0  0  0  0  0  0  0  0
   -0.7257    1.6057    0.0020 S   0  0  0  0  0  0  0  0  0  0  0  0
   -2.3660    0.3023   -0.3007 P   0  0  0  0  0  0  0  0  0  0  0  0
   -3.0399    0.1317   -2.1261 S   0  0  0  0  0  0  0  0  0  0  0  0
   -3.4689    0.8416    0.6970 O   0  0  0  0  0  0  0  0  0  0  0  0
   -3.2083    1.0088    2.1153 C   0  0  0  0  0  0  0  0  0  0  0  0
   -4.5444    1.1586    2.8122 C   0  0  0  0  0  0  0  0  0  0  0  0
   -1.7672   -1.0376    0.3382 O   0  0  0  0  0  0  0  0  0  0  0  0
   -2.2139   -2.3426   -0.0770 C   0  0  0  0  0  0  0  0  0  0  0  0
   -3.6022   -2.6390    0.4520 C   0  0  0  0  0  0  0  0  0  0  0  0
    2.3421   -2.7185    0.1405 H   0  0  0  0  0  0  0  0  0  0  0  0
    3.4474   -3.9995   -0.3783 H   0  0  0  0  0  0  0  0  0  0  0  0
    3.9702   -2.8131    0.8320 H   0  0  0  0  0  0  0  0  0  0  0  0
    3.2728   -2.1640   -2.0740 H   0  0  0  0  0  0  0  0  0  0  0  0
    4.9368   -2.3181   -1.4392 H   0  0  0  0  0  0  0  0  0  0  0  0
    2.6684    0.4863    3.1497 H   0  0  0  0  0  0  0  0  0  0  0  0
    1.6688    1.3486    1.9539 H   0  0  0  0  0  0  0  0  0  0  0  0
    0.1167   -0.6186    1.8578 H   0  0  0  0  0  0  0  0  0  0  0  0
    1.1289   -1.4712    3.0309 H   0  0  0  0  0  0  0  0  0  0  0  0
    0.2579   -0.0042    3.5109 H   0  0  0  0  0  0  0  0  0  0  0  0
   -0.4785    0.9312   -2.2880 H   0  0  0  0  0  0  0  0  0  0  0  0
    0.9561    1.8222   -1.6507 H   0  0  0  0  0  0  0  0  0  0  0  0
   -2.6609    0.1346    2.4759 H   0  0  0  0  0  0  0  0  0  0  0  0
   -2.5877    1.8999    2.2383 H   0  0  0  0  0  0  0  0  0  0  0  0
   -4.3769    1.3105    3.8736 H   0  0  0  0  0  0  0  0  0  0  0  0
   -5.0807    2.0118    2.4071 H   0  0  0  0  0  0  0  0  0  0  0  0
   -5.1479    0.2672    2.6663 H   0  0  0  0  0  0  0  0  0  0  0  0
   -2.1976   -2.3850   -1.1702 H   0  0  0  0  0  0  0  0  0  0  0  0
   -1.4654   -3.0233    0.3302 H   0  0  0  0  0  0  0  0  0  0  0  0
   -4.3101   -1.9176    0.0436 H   0  0  0  0  0  0  0  0  0  0  0  0
   -3.9003   -3.6364    0.1452 H   0  0  0  0  0  0  0  0  0  0  0  0
   -3.6180   -2.5765    1.5370 H   0  0  0  0  0  0  0  0  0  0  0  0
  1  2  1  0  0  0  0
  2  3  1  0  0  0  0
  3  4  2  0  0  0  0
  4  5  2  0  0  0  0
  4  6  2  0  0  0  0
  6  7  1  0  0  0  0
  7  8  1  0  0  0  0
  4  9  1  0  0  0  0
  9 10  1  0  0  0  0
 10 11  1  0  0  0  0
 11 12  1  0  0  0  0
 12 13  2  0  0  0  0
 12 14  2  0  0  0  0
 14 15  1  0  0  0  0
 15 16  1  0  0  0  0
 12 17  1  0  0  0  0
 17 18  1  0  0  0  0
 18 19  1  0  0  0  0
  1 20  1  0  0  0  0
  1 21  1  0  0  0  0
  1 22  1  0  0  0  0
  2 23  1  0  0  0  0
  2 24  1  0  0  0  0
  7 25  1  0  0  0  0
  7 26  1  0  0  0  0
  8 27  1  0  0  0  0
  8 28  1  0  0  0  0
  8 29  1  0  0  0  0
 10 30  1  0  0  0  0
 10 31  1  0  0  0  0
 15 32  1  0  0  0  0
 15 33  1  0  0  0  0
 16 34  1  0  0  0  0
 16 35  1  0  0  0  0
 16 36  1  0  0  0  0
 18 37  1  0  0  0  0
 18 38  1  0  0  0  0
 19 39  1  0  0  0  0
 19 40  1  0  0  0  0
 19 41  1  0  0  0  0
M  END
