 xtb: 6.7.1 (edcfbbe)
          04092505213D

 41 40  0     0  0            999 V2000
    5.5823   -0.4341   -1.1193 C   0  0  0  0  0  0  0  0  0  0  0  0
    4.3356    0.4247   -1.0569 C   0  0  0  0  0  0  0  0  0  0  0  0
    3.3818   -0.2420   -0.2094 O   0  0  0  0  0  0  0  0  0  0  0  0
    1.9942    0.4556    0.1532 P   0  0  0  0  0  0  0  0  0  0  0  0
    2.1440    2.2857    0.8301 S   0  0  0  0  0  0  0  0  0  0  0  0
    1.3705   -0.6351    1.1051 O   0  0  0  0  0  0  0  0  0  0  0  0
    1.3539   -0.4827    2.5386 C   0  0  0  0  0  0  0  0  0  0  0  0
    2.7300   -0.7153    3.1238 C   0  0  0  0  0  0  0  0  0  0  0  0
    0.8563    0.2542   -1.6285 S   0  0  0  0  0  0  0  0  0  0  0  0
    0.4741   -1.5167   -1.5894 C   0  0  0  0  0  0  0  0  0  0  0  0
   -0.7538   -2.0049   -0.3288 S   0  0  0  0  0  0  0  0  0  0  0  0
   -2.0036   -0.3143   -0.3308 P   0  0  0  0  0  0  0  0  0  0  0  0
   -2.6281    0.3797   -2.0594 S   0  0  0  0  0  0  0  0  0  0  0  0
   -1.2107    0.6953    0.6077 O   0  0  0  0  0  0  0  0  0  0  0  0
   -1.5055    2.1081    0.5823 C   0  0  0  0  0  0  0  0  0  0  0  0
   -2.8703    2.4059    1.1624 C   0  0  0  0  0  0  0  0  0  0  0  0
   -3.1646   -0.7904    0.6420 O   0  0  0  0  0  0  0  0  0  0  0  0
   -4.2486   -1.6249    0.1843 C   0  0  0  0  0  0  0  0  0  0  0  0
   -5.4063   -1.4595    1.1480 C   0  0  0  0  0  0  0  0  0  0  0  0
    6.3140    0.0484   -1.7587 H   0  0  0  0  0  0  0  0  0  0  0  0
    6.0002   -0.5569   -0.1245 H   0  0  0  0  0  0  0  0  0  0  0  0
    5.3411   -1.4127   -1.5235 H   0  0  0  0  0  0  0  0  0  0  0  0
    3.8885    0.5584   -2.0475 H   0  0  0  0  0  0  0  0  0  0  0  0
    4.5451    1.4117   -0.6316 H   0  0  0  0  0  0  0  0  0  0  0  0
    0.9904    0.5207    2.7809 H   0  0  0  0  0  0  0  0  0  0  0  0
    0.6314   -1.2292    2.8720 H   0  0  0  0  0  0  0  0  0  0  0  0
    2.6746   -0.6692    4.2068 H   0  0  0  0  0  0  0  0  0  0  0  0
    3.1074   -1.6876    2.8193 H   0  0  0  0  0  0  0  0  0  0  0  0
    3.4126    0.0564    2.7695 H   0  0  0  0  0  0  0  0  0  0  0  0
    1.3738   -2.0897   -1.3770 H   0  0  0  0  0  0  0  0  0  0  0  0
    0.0783   -1.7453   -2.5772 H   0  0  0  0  0  0  0  0  0  0  0  0
   -0.7024    2.5608    1.1675 H   0  0  0  0  0  0  0  0  0  0  0  0
   -1.4355    2.4568   -0.4542 H   0  0  0  0  0  0  0  0  0  0  0  0
   -3.0070    3.4813    1.2183 H   0  0  0  0  0  0  0  0  0  0  0  0
   -3.6423    1.9820    0.5213 H   0  0  0  0  0  0  0  0  0  0  0  0
   -2.9576    1.9745    2.1561 H   0  0  0  0  0  0  0  0  0  0  0  0
   -4.5215   -1.3155   -0.8304 H   0  0  0  0  0  0  0  0  0  0  0  0
   -3.8933   -2.6583    0.1602 H   0  0  0  0  0  0  0  0  0  0  0  0
   -6.2194   -2.1088    0.8403 H   0  0  0  0  0  0  0  0  0  0  0  0
   -5.0921   -1.7261    2.1528 H   0  0  0  0  0  0  0  0  0  0  0  0
   -5.7515   -0.4295    1.1485 H   0  0  0  0  0  0  0  0  0  0  0  0
  1  2  1  0  0  0  0
  2  3  1  0  0  0  0
  3  4  1  0  0  0  0
  4  5  2  0  0  0  0
  4  6  2  0  0  0  0
  6  7  1  0  0  0  0
  7  8  1  0  0  0  0
  4  9  1  0  0  0  0
  9 10  1  0  0  0  0
 10 11  1  0  0  0  0
 11 12  1  0  0  0  0
 12 13  2  0  0  0  0
 12 14  1  0  0  0  0
 14 15  1  0  0  0  0
 15 16  1  0  0  0  0
 12 17  2  0  0  0  0
 17 18  1  0  0  0  0
 18 19  1  0  0  0  0
  1 20  1  0  0  0  0
  1 21  1  0  0  0  0
  1 22  1  0  0  0  0
  2 23  1  0  0  0  0
  2 24  1  0  0  0  0
  7 25  1  0  0  0  0
  7 26  1  0  0  0  0
  8 27  1  0  0  0  0
  8 28  1  0  0  0  0
  8 29  1  0  0  0  0
 10 30  1  0  0  0  0
 10 31  1  0  0  0  0
 15 32  1  0  0  0  0
 15 33  1  0  0  0  0
 16 34  1  0  0  0  0
 16 35  1  0  0  0  0
 16 36  1  0  0  0  0
 18 37  1  0  0  0  0
 18 38  1  0  0  0  0
 19 39  1  0  0  0  0
 19 40  1  0  0  0  0
 19 41  1  0  0  0  0
M  END
