 xtb: 6.7.1 (edcfbbe)
          04092505213D

 41 40  0     0  0            999 V2000
    2.5468   -2.9739    1.3200 C   0  0  0  0  0  0  0  0  0  0  0  0
    1.2151   -2.2991    1.0585 C   0  0  0  0  0  0  0  0  0  0  0  0
    1.3679   -0.8781    0.9446 O   0  0  0  0  0  0  0  0  0  0  0  0
    1.9172   -0.1884   -0.3858 P   0  0  0  0  0  0  0  0  0  0  0  0
    1.7015   -1.2266   -2.0295 S   0  0  0  0  0  0  0  0  0  0  0  0
    3.4673    0.0774   -0.1468 O   0  0  0  0  0  0  0  0  0  0  0  0
    4.0418    1.1147    0.6780 C   0  0  0  0  0  0  0  0  0  0  0  0
    3.5529    1.0630    2.1103 C   0  0  0  0  0  0  0  0  0  0  0  0
    1.0776    1.7480   -0.3323 S   0  0  0  0  0  0  0  0  0  0  0  0
   -0.0892    1.6263   -1.7138 C   0  0  0  0  0  0  0  0  0  0  0  0
   -1.8459    1.7544   -1.2506 S   0  0  0  0  0  0  0  0  0  0  0  0
   -2.0463    0.1342    0.1082 P   0  0  0  0  0  0  0  0  0  0  0  0
   -3.9011   -0.2629    0.5870 S   0  0  0  0  0  0  0  0  0  0  0  0
   -1.0738    0.4047    1.3270 O   0  0  0  0  0  0  0  0  0  0  0  0
   -1.5121    1.1252    2.4931 C   0  0  0  0  0  0  0  0  0  0  0  0
   -1.6757    2.6065    2.2151 C   0  0  0  0  0  0  0  0  0  0  0  0
   -1.1829   -1.0271   -0.5586 O   0  0  0  0  0  0  0  0  0  0  0  0
   -1.7664   -1.8096   -1.6242 C   0  0  0  0  0  0  0  0  0  0  0  0
   -2.3350   -3.1071   -1.0867 C   0  0  0  0  0  0  0  0  0  0  0  0
    3.2223   -2.7851    0.4857 H   0  0  0  0  0  0  0  0  0  0  0  0
    2.9949   -2.5881    2.2317 H   0  0  0  0  0  0  0  0  0  0  0  0
    2.3963   -4.0444    1.4188 H   0  0  0  0  0  0  0  0  0  0  0  0
    0.5163   -2.4328    1.8859 H   0  0  0  0  0  0  0  0  0  0  0  0
    0.7652   -2.6792    0.1359 H   0  0  0  0  0  0  0  0  0  0  0  0
    5.1141    0.9238    0.6098 H   0  0  0  0  0  0  0  0  0  0  0  0
    3.8085    2.0809    0.2234 H   0  0  0  0  0  0  0  0  0  0  0  0
    2.4758    1.2199    2.1428 H   0  0  0  0  0  0  0  0  0  0  0  0
    3.7817    0.0984    2.5559 H   0  0  0  0  0  0  0  0  0  0  0  0
    4.0420    1.8463    2.6810 H   0  0  0  0  0  0  0  0  0  0  0  0
    0.0965    0.6888   -2.2441 H   0  0  0  0  0  0  0  0  0  0  0  0
    0.0801    2.4810   -2.3643 H   0  0  0  0  0  0  0  0  0  0  0  0
   -2.4558    0.6884    2.8364 H   0  0  0  0  0  0  0  0  0  0  0  0
   -0.7271    0.9370    3.2271 H   0  0  0  0  0  0  0  0  0  0  0  0
   -1.8986    3.1219    3.1438 H   0  0  0  0  0  0  0  0  0  0  0  0
   -0.7636    3.0145    1.7852 H   0  0  0  0  0  0  0  0  0  0  0  0
   -2.4970    2.7661    1.5169 H   0  0  0  0  0  0  0  0  0  0  0  0
   -2.5455   -1.2206   -2.1201 H   0  0  0  0  0  0  0  0  0  0  0  0
   -0.9465   -1.9932   -2.3239 H   0  0  0  0  0  0  0  0  0  0  0  0
   -1.5602   -3.6763   -0.5806 H   0  0  0  0  0  0  0  0  0  0  0  0
   -3.1388   -2.9008   -0.3833 H   0  0  0  0  0  0  0  0  0  0  0  0
   -2.7266   -3.6905   -1.9138 H   0  0  0  0  0  0  0  0  0  0  0  0
  1  2  1  0  0  0  0
  2  3  1  0  0  0  0
  3  4  1  0  0  0  0
  4  5  2  0  0  0  0
  4  6  2  0  0  0  0
  6  7  1  0  0  0  0
  7  8  1  0  0  0  0
  4  9  1  0  0  0  0
  9 10  1  0  0  0  0
 10 11  1  0  0  0  0
 11 12  1  0  0  0  0
 12 13  2  0  0  0  0
 12 14  2  0  0  0  0
 14 15  1  0  0  0  0
 15 16  1  0  0  0  0
 12 17  1  0  0  0  0
 17 18  1  0  0  0  0
 18 19  1  0  0  0  0
  1 20  1  0  0  0  0
  1 21  1  0  0  0  0
  1 22  1  0  0  0  0
  2 23  1  0  0  0  0
  2 24  1  0  0  0  0
  7 25  1  0  0  0  0
  7 26  1  0  0  0  0
  8 27  1  0  0  0  0
  8 28  1  0  0  0  0
  8 29  1  0  0  0  0
 10 30  1  0  0  0  0
 10 31  1  0  0  0  0
 15 32  1  0  0  0  0
 15 33  1  0  0  0  0
 16 34  1  0  0  0  0
 16 35  1  0  0  0  0
 16 36  1  0  0  0  0
 18 37  1  0  0  0  0
 18 38  1  0  0  0  0
 19 39  1  0  0  0  0
 19 40  1  0  0  0  0
 19 41  1  0  0  0  0
M  END
