 xtb: 6.7.1 (edcfbbe)
          04092505203D

 41 40  0     0  0            999 V2000
    4.4974   -1.7372   -0.6938 C   0  0  0  0  0  0  0  0  0  0  0  0
    4.6065   -0.2917   -0.2526 C   0  0  0  0  0  0  0  0  0  0  0  0
    3.4602    0.1382    0.5008 O   0  0  0  0  0  0  0  0  0  0  0  0
    2.0188    0.3121   -0.1524 P   0  0  0  0  0  0  0  0  0  0  0  0
    2.0432    1.0219   -1.9841 S   0  0  0  0  0  0  0  0  0  0  0  0
    1.2894    1.1718    0.9608 O   0  0  0  0  0  0  0  0  0  0  0  0
    1.3121    2.6114    0.9669 C   0  0  0  0  0  0  0  0  0  0  0  0
    2.7007    3.1616    1.2119 C   0  0  0  0  0  0  0  0  0  0  0  0
    1.1345   -1.5675    0.1563 S   0  0  0  0  0  0  0  0  0  0  0  0
   -0.0358   -1.6244   -1.2477 C   0  0  0  0  0  0  0  0  0  0  0  0
   -1.7485   -1.8412   -0.7289 S   0  0  0  0  0  0  0  0  0  0  0  0
   -2.0218    0.0603    0.1833 P   0  0  0  0  0  0  0  0  0  0  0  0
   -1.4274    1.5704   -0.9162 S   0  0  0  0  0  0  0  0  0  0  0  0
   -1.2875    0.0359    1.5789 O   0  0  0  0  0  0  0  0  0  0  0  0
   -1.7586   -0.6091    2.7890 C   0  0  0  0  0  0  0  0  0  0  0  0
   -1.8794   -2.1117    2.6481 C   0  0  0  0  0  0  0  0  0  0  0  0
   -3.5517    0.0781    0.6068 O   0  0  0  0  0  0  0  0  0  0  0  0
   -4.6046    0.4933   -0.2825 C   0  0  0  0  0  0  0  0  0  0  0  0
   -4.7763   -0.4490   -1.4556 C   0  0  0  0  0  0  0  0  0  0  0  0
    5.4374   -2.0467   -1.1392 H   0  0  0  0  0  0  0  0  0  0  0  0
    4.2703   -2.3762    0.1557 H   0  0  0  0  0  0  0  0  0  0  0  0
    3.7055   -1.8406   -1.4343 H   0  0  0  0  0  0  0  0  0  0  0  0
    4.7140    0.3660   -1.1213 H   0  0  0  0  0  0  0  0  0  0  0  0
    5.4406   -0.1416    0.4342 H   0  0  0  0  0  0  0  0  0  0  0  0
    0.9114    2.9671    0.0113 H   0  0  0  0  0  0  0  0  0  0  0  0
    0.6191    2.8763    1.7672 H   0  0  0  0  0  0  0  0  0  0  0  0
    3.3467    2.9279    0.3664 H   0  0  0  0  0  0  0  0  0  0  0  0
    2.6425    4.2399    1.3231 H   0  0  0  0  0  0  0  0  0  0  0  0
    3.1239    2.7234    2.1121 H   0  0  0  0  0  0  0  0  0  0  0  0
    0.2061   -2.4949   -1.8518 H   0  0  0  0  0  0  0  0  0  0  0  0
    0.0688   -0.7021   -1.8260 H   0  0  0  0  0  0  0  0  0  0  0  0
   -0.9966   -0.3365    3.5212 H   0  0  0  0  0  0  0  0  0  0  0  0
   -2.7164   -0.1609    3.0598 H   0  0  0  0  0  0  0  0  0  0  0  0
   -2.6765   -2.3670    1.9532 H   0  0  0  0  0  0  0  0  0  0  0  0
   -0.9449   -2.5350    2.2858 H   0  0  0  0  0  0  0  0  0  0  0  0
   -2.1090   -2.5361    3.6206 H   0  0  0  0  0  0  0  0  0  0  0  0
   -5.4889    0.5073    0.3564 H   0  0  0  0  0  0  0  0  0  0  0  0
   -4.3807    1.5059   -0.6320 H   0  0  0  0  0  0  0  0  0  0  0  0
   -3.9146   -0.3821   -2.1177 H   0  0  0  0  0  0  0  0  0  0  0  0
   -4.8732   -1.4746   -1.1090 H   0  0  0  0  0  0  0  0  0  0  0  0
   -5.6663   -0.1691   -2.0101 H   0  0  0  0  0  0  0  0  0  0  0  0
  1  2  1  0  0  0  0
  2  3  1  0  0  0  0
  3  4  2  0  0  0  0
  4  5  2  0  0  0  0
  4  6  2  0  0  0  0
  6  7  1  0  0  0  0
  7  8  1  0  0  0  0
  4  9  1  0  0  0  0
  9 10  1  0  0  0  0
 10 11  1  0  0  0  0
 11 12  1  0  0  0  0
 12 13  2  0  0  0  0
 12 14  2  0  0  0  0
 14 15  1  0  0  0  0
 15 16  1  0  0  0  0
 12 17  2  0  0  0  0
 17 18  1  0  0  0  0
 18 19  1  0  0  0  0
  1 20  1  0  0  0  0
  1 21  1  0  0  0  0
  1 22  1  0  0  0  0
  2 23  1  0  0  0  0
  2 24  1  0  0  0  0
  7 25  1  0  0  0  0
  7 26  1  0  0  0  0
  8 27  1  0  0  0  0
  8 28  1  0  0  0  0
  8 29  1  0  0  0  0
 10 30  1  0  0  0  0
 10 31  1  0  0  0  0
 15 32  1  0  0  0  0
 15 33  1  0  0  0  0
 16 34  1  0  0  0  0
 16 35  1  0  0  0  0
 16 36  1  0  0  0  0
 18 37  1  0  0  0  0
 18 38  1  0  0  0  0
 19 39  1  0  0  0  0
 19 40  1  0  0  0  0
 19 41  1  0  0  0  0
M  END
