 xtb: 6.7.1 (edcfbbe)
          04032520223D

 16 16  0     0  0            999 V2000
   -1.5451   -0.0019   -0.0275 C   0  0  0  0  0  0  0  0  0  0  0  0
   -0.6731   -1.2083    0.3501 C   0  0  0  0  0  0  0  0  0  0  0  0
    0.6669   -1.1301   -0.3723 C   0  0  0  0  0  0  0  0  0  0  0  0
    1.4330    0.0017    0.0252 O   0  0  0  0  0  0  0  0  0  0  0  0
    0.6505    1.1315    0.3957 C   0  0  0  0  0  0  0  0  0  0  0  0
   -0.6634    1.2069   -0.3735 C   0  0  0  0  0  0  0  0  0  0  0  0
   -2.2027    0.2425    0.8070 H   0  0  0  0  0  0  0  0  0  0  0  0
   -2.1719   -0.2480   -0.8849 H   0  0  0  0  0  0  0  0  0  0  0  0
   -0.4839   -1.2190    1.4248 H   0  0  0  0  0  0  0  0  0  0  0  0
   -1.1688   -2.1414    0.0863 H   0  0  0  0  0  0  0  0  0  0  0  0
    1.2928   -1.9966   -0.1444 H   0  0  0  0  0  0  0  0  0  0  0  0
    0.5035   -1.0960   -1.4592 H   0  0  0  0  0  0  0  0  0  0  0  0
    0.4489    1.0967    1.4762 H   0  0  0  0  0  0  0  0  0  0  0  0
    1.2819    1.9998    0.1899 H   0  0  0  0  0  0  0  0  0  0  0  0
   -1.1702    2.1387   -0.1268 H   0  0  0  0  0  0  0  0  0  0  0  0
   -0.4365    1.2186   -1.4408 H   0  0  0  0  0  0  0  0  0  0  0  0
  1  2  1  0  0  0  0
  2  3  1  0  0  0  0
  3  4  1  0  0  0  0
  4  5  1  0  0  0  0
  1  6  1  0  0  0  0
  5  6  1  0  0  0  0
  1  7  1  0  0  0  0
  1  8  1  0  0  0  0
  2  9  1  0  0  0  0
  2 10  1  0  0  0  0
  3 11  1  0  0  0  0
  3 12  1  0  0  0  0
  5 13  1  0  0  0  0
  5 14  1  0  0  0  0
  6 15  1  0  0  0  0
  6 16  1  0  0  0  0
M  END
