 xtb: 6.7.1 (edcfbbe)
          04092514013D

 41 40  0     0  0            999 V2000
    0.2213   -1.7252    2.9333 C   0  0  0  0  0  0  0  0  0  0  0  0
    1.4894   -1.7018    2.1053 C   0  0  0  0  0  0  0  0  0  0  0  0
    1.6462   -0.3765    1.5538 O   0  0  0  0  0  0  0  0  0  0  0  0
    2.4206   -0.0434    0.2136 P   0  0  0  0  0  0  0  0  0  0  0  0
    3.2328   -1.6011   -0.6654 S   0  0  0  0  0  0  0  0  0  0  0  0
    3.3813    1.0717    0.7993 O   0  0  0  0  0  0  0  0  0  0  0  0
    4.0431    2.1071    0.0488 C   0  0  0  0  0  0  0  0  0  0  0  0
    4.9714    1.5614   -1.0172 C   0  0  0  0  0  0  0  0  0  0  0  0
    1.0588    1.0789   -0.9715 S   0  0  0  0  0  0  0  0  0  0  0  0
    0.3464   -0.3233   -1.8683 C   0  0  0  0  0  0  0  0  0  0  0  0
   -0.6126   -1.4327   -0.8029 S   0  0  0  0  0  0  0  0  0  0  0  0
   -2.1105   -0.0337   -0.2534 P   0  0  0  0  0  0  0  0  0  0  0  0
   -2.6863    1.1959   -1.6711 S   0  0  0  0  0  0  0  0  0  0  0  0
   -1.4961    0.6252    1.0444 O   0  0  0  0  0  0  0  0  0  0  0  0
   -1.6911    2.0086    1.3948 C   0  0  0  0  0  0  0  0  0  0  0  0
   -3.0351    2.2165    2.0608 C   0  0  0  0  0  0  0  0  0  0  0  0
   -3.2213   -0.9654    0.3941 O   0  0  0  0  0  0  0  0  0  0  0  0
   -4.0673   -1.8260   -0.3980 C   0  0  0  0  0  0  0  0  0  0  0  0
   -5.4195   -1.1812   -0.6353 C   0  0  0  0  0  0  0  0  0  0  0  0
    0.1261   -2.6972    3.4061 H   0  0  0  0  0  0  0  0  0  0  0  0
    0.2659   -0.9541    3.6970 H   0  0  0  0  0  0  0  0  0  0  0  0
   -0.6474   -1.5455    2.3044 H   0  0  0  0  0  0  0  0  0  0  0  0
    1.4529   -2.4315    1.2899 H   0  0  0  0  0  0  0  0  0  0  0  0
    2.3683   -1.9047    2.7223 H   0  0  0  0  0  0  0  0  0  0  0  0
    3.2806    2.7543   -0.3937 H   0  0  0  0  0  0  0  0  0  0  0  0
    4.5963    2.6577    0.8122 H   0  0  0  0  0  0  0  0  0  0  0  0
    4.4030    1.0333   -1.7810 H   0  0  0  0  0  0  0  0  0  0  0  0
    5.5064    2.3848   -1.4801 H   0  0  0  0  0  0  0  0  0  0  0  0
    5.6868    0.8694   -0.5794 H   0  0  0  0  0  0  0  0  0  0  0  0
    1.1451   -0.9268   -2.3002 H   0  0  0  0  0  0  0  0  0  0  0  0
   -0.3002    0.0978   -2.6377 H   0  0  0  0  0  0  0  0  0  0  0  0
   -0.8617    2.2332    2.0674 H   0  0  0  0  0  0  0  0  0  0  0  0
   -1.6057    2.6180    0.4888 H   0  0  0  0  0  0  0  0  0  0  0  0
   -3.8339    1.9919    1.3554 H   0  0  0  0  0  0  0  0  0  0  0  0
   -3.1334    1.5631    2.9233 H   0  0  0  0  0  0  0  0  0  0  0  0
   -3.1225    3.2509    2.3782 H   0  0  0  0  0  0  0  0  0  0  0  0
   -3.5700   -2.0529   -1.3456 H   0  0  0  0  0  0  0  0  0  0  0  0
   -4.1618   -2.7412    0.1892 H   0  0  0  0  0  0  0  0  0  0  0  0
   -6.0578   -1.8786   -1.1685 H   0  0  0  0  0  0  0  0  0  0  0  0
   -5.8826   -0.9249    0.3133 H   0  0  0  0  0  0  0  0  0  0  0  0
   -5.3085   -0.2769   -1.2298 H   0  0  0  0  0  0  0  0  0  0  0  0
  1  2  1  0  0  0  0
  2  3  1  0  0  0  0
  3  4  2  0  0  0  0
  4  5  2  0  0  0  0
  4  6  2  0  0  0  0
  6  7  1  0  0  0  0
  7  8  1  0  0  0  0
  4  9  1  0  0  0  0
  9 10  1  0  0  0  0
 10 11  1  0  0  0  0
 11 12  1  0  0  0  0
 12 13  2  0  0  0  0
 12 14  2  0  0  0  0
 14 15  1  0  0  0  0
 15 16  1  0  0  0  0
 12 17  2  0  0  0  0
 17 18  1  0  0  0  0
 18 19  1  0  0  0  0
  1 20  1  0  0  0  0
  1 21  1  0  0  0  0
  1 22  1  0  0  0  0
  2 23  1  0  0  0  0
  2 24  1  0  0  0  0
  7 25  1  0  0  0  0
  7 26  1  0  0  0  0
  8 27  1  0  0  0  0
  8 28  1  0  0  0  0
  8 29  1  0  0  0  0
 10 30  1  0  0  0  0
 10 31  1  0  0  0  0
 15 32  1  0  0  0  0
 15 33  1  0  0  0  0
 16 34  1  0  0  0  0
 16 35  1  0  0  0  0
 16 36  1  0  0  0  0
 18 37  1  0  0  0  0
 18 38  1  0  0  0  0
 19 39  1  0  0  0  0
 19 40  1  0  0  0  0
 19 41  1  0  0  0  0
M  END
