 xtb: 6.7.1 (edcfbbe)
          04092505203D

 41 40  0     0  0            999 V2000
    4.7981    1.0854   -1.3194 C   0  0  0  0  0  0  0  0  0  0  0  0
    4.8083    0.8980    0.1835 C   0  0  0  0  0  0  0  0  0  0  0  0
    3.8287   -0.0597    0.6243 O   0  0  0  0  0  0  0  0  0  0  0  0
    2.2661    0.1818    0.4829 P   0  0  0  0  0  0  0  0  0  0  0  0
    1.6295    1.9994    0.8450 S   0  0  0  0  0  0  0  0  0  0  0  0
    1.6672   -0.8443    1.5221 O   0  0  0  0  0  0  0  0  0  0  0  0
    2.2106   -2.1437    1.8608 C   0  0  0  0  0  0  0  0  0  0  0  0
    2.2076   -3.1037    0.6903 C   0  0  0  0  0  0  0  0  0  0  0  0
    1.7873   -0.5259   -1.4727 S   0  0  0  0  0  0  0  0  0  0  0  0
    0.0686   -0.0093   -1.4644 C   0  0  0  0  0  0  0  0  0  0  0  0
   -0.9619   -1.1587   -0.4701 S   0  0  0  0  0  0  0  0  0  0  0  0
   -2.5773    0.1760   -0.1624 P   0  0  0  0  0  0  0  0  0  0  0  0
   -4.1926   -0.5505    0.6710 S   0  0  0  0  0  0  0  0  0  0  0  0
   -2.7776    0.8624   -1.5830 O   0  0  0  0  0  0  0  0  0  0  0  0
   -3.7664    0.3811   -2.5135 C   0  0  0  0  0  0  0  0  0  0  0  0
   -3.3925   -0.9637   -3.1055 C   0  0  0  0  0  0  0  0  0  0  0  0
   -1.9123    1.4294    0.5561 O   0  0  0  0  0  0  0  0  0  0  0  0
   -2.0119    1.6262    1.9766 C   0  0  0  0  0  0  0  0  0  0  0  0
   -1.3351    0.5228    2.7644 C   0  0  0  0  0  0  0  0  0  0  0  0
    3.8762    1.5750   -1.6289 H   0  0  0  0  0  0  0  0  0  0  0  0
    5.6393    1.7079   -1.6070 H   0  0  0  0  0  0  0  0  0  0  0  0
    4.8705    0.1247   -1.8229 H   0  0  0  0  0  0  0  0  0  0  0  0
    4.6149    1.8478    0.6913 H   0  0  0  0  0  0  0  0  0  0  0  0
    5.7533    0.4776    0.5307 H   0  0  0  0  0  0  0  0  0  0  0  0
    3.2205   -1.9986    2.2486 H   0  0  0  0  0  0  0  0  0  0  0  0
    1.5491   -2.4854    2.6584 H   0  0  0  0  0  0  0  0  0  0  0  0
    2.4928   -4.0892    1.0449 H   0  0  0  0  0  0  0  0  0  0  0  0
    1.2142   -3.1572    0.2490 H   0  0  0  0  0  0  0  0  0  0  0  0
    2.9163   -2.7823   -0.0698 H   0  0  0  0  0  0  0  0  0  0  0  0
   -0.2713   -0.0278   -2.4961 H   0  0  0  0  0  0  0  0  0  0  0  0
   -0.0108    0.9916   -1.0350 H   0  0  0  0  0  0  0  0  0  0  0  0
   -4.7271    0.3138   -1.9934 H   0  0  0  0  0  0  0  0  0  0  0  0
   -3.8111    1.1615   -3.2744 H   0  0  0  0  0  0  0  0  0  0  0  0
   -3.3494   -1.7164   -2.3186 H   0  0  0  0  0  0  0  0  0  0  0  0
   -4.1475   -1.2557   -3.8285 H   0  0  0  0  0  0  0  0  0  0  0  0
   -2.4263   -0.9135   -3.6009 H   0  0  0  0  0  0  0  0  0  0  0  0
   -1.5247    2.5891    2.1397 H   0  0  0  0  0  0  0  0  0  0  0  0
   -3.0716    1.6898    2.2418 H   0  0  0  0  0  0  0  0  0  0  0  0
   -1.8246   -0.4308    2.5656 H   0  0  0  0  0  0  0  0  0  0  0  0
   -0.2858    0.4456    2.4872 H   0  0  0  0  0  0  0  0  0  0  0  0
   -1.4070    0.7441    3.8243 H   0  0  0  0  0  0  0  0  0  0  0  0
  1  2  1  0  0  0  0
  2  3  1  0  0  0  0
  3  4  2  0  0  0  0
  4  5  2  0  0  0  0
  4  6  2  0  0  0  0
  6  7  1  0  0  0  0
  7  8  1  0  0  0  0
  4  9  1  0  0  0  0
  9 10  1  0  0  0  0
 10 11  1  0  0  0  0
 11 12  1  0  0  0  0
 12 13  2  0  0  0  0
 12 14  2  0  0  0  0
 14 15  1  0  0  0  0
 15 16  1  0  0  0  0
 12 17  2  0  0  0  0
 17 18  1  0  0  0  0
 18 19  1  0  0  0  0
  1 20  1  0  0  0  0
  1 21  1  0  0  0  0
  1 22  1  0  0  0  0
  2 23  1  0  0  0  0
  2 24  1  0  0  0  0
  7 25  1  0  0  0  0
  7 26  1  0  0  0  0
  8 27  1  0  0  0  0
  8 28  1  0  0  0  0
  8 29  1  0  0  0  0
 10 30  1  0  0  0  0
 10 31  1  0  0  0  0
 15 32  1  0  0  0  0
 15 33  1  0  0  0  0
 16 34  1  0  0  0  0
 16 35  1  0  0  0  0
 16 36  1  0  0  0  0
 18 37  1  0  0  0  0
 18 38  1  0  0  0  0
 19 39  1  0  0  0  0
 19 40  1  0  0  0  0
 19 41  1  0  0  0  0
M  END
