 xtb: 6.7.1 (edcfbbe)
          04092507313D

 38 37  0     0  0            999 V2000
    4.0091   -2.7973    1.2227 C   0  0  0  0  0  0  0  0  0  0  0  0
    2.6789   -2.0717    1.2440 C   0  0  0  0  0  0  0  0  0  0  0  0
    2.4682   -1.4905   -0.0590 O   0  0  0  0  0  0  0  0  0  0  0  0
    1.5691   -0.5579   -0.1966 C   0  0  0  0  0  0  0  0  0  0  0  0
    0.8978   -0.0962    0.7158 O   0  0  0  0  0  0  0  0  0  0  0  0
    1.4460   -0.0534   -1.6133 C   0  0  0  0  0  0  0  0  0  0  0  0
    0.3726    1.0236   -1.6618 C   0  0  0  0  0  0  0  0  0  0  0  0
    0.4228    1.5743   -2.6050 H   0  0  0  0  0  0  0  0  0  0  0  0
    0.5079    2.0186   -0.5150 C   0  0  0  0  0  0  0  0  0  0  0  0
   -0.4232    2.4630    0.1136 O   0  0  0  0  0  0  0  0  0  0  0  0
    1.7691    2.3776   -0.3607 O   0  0  0  0  0  0  0  0  0  0  0  0
    2.0729    3.3638    0.6464 C   0  0  0  0  0  0  0  0  0  0  0  0
    1.8699    4.7722    0.1122 C   0  0  0  0  0  0  0  0  0  0  0  0
   -1.3294    0.3645   -1.6804 S   0  0  0  0  0  0  0  0  0  0  0  0
   -1.7135   -0.7483    0.0733 P   0  0  0  0  0  0  0  0  0  0  0  0
   -0.8645   -2.4982    0.3824 S   0  0  0  0  0  0  0  0  0  0  0  0
   -1.8582    0.2410    1.2989 O   0  0  0  0  0  0  0  0  0  0  0  0
   -1.2736    0.0565    2.5873 C   0  0  0  0  0  0  0  0  0  0  0  0
   -3.2838   -0.9427   -0.1821 O   0  0  0  0  0  0  0  0  0  0  0  0
   -3.7805   -1.8384   -1.1814 C   0  0  0  0  0  0  0  0  0  0  0  0
    3.9978   -3.5624    0.4528 H   0  0  0  0  0  0  0  0  0  0  0  0
    4.8151   -2.0995    1.0161 H   0  0  0  0  0  0  0  0  0  0  0  0
    4.1758   -3.2633    2.1880 H   0  0  0  0  0  0  0  0  0  0  0  0
    2.6562   -1.2702    1.9890 H   0  0  0  0  0  0  0  0  0  0  0  0
    1.8462   -2.7549    1.4394 H   0  0  0  0  0  0  0  0  0  0  0  0
    1.1999   -0.8850   -2.2753 H   0  0  0  0  0  0  0  0  0  0  0  0
    2.4107    0.3565   -1.9175 H   0  0  0  0  0  0  0  0  0  0  0  0
    1.4346    3.1800    1.5154 H   0  0  0  0  0  0  0  0  0  0  0  0
    3.1175    3.1782    0.8971 H   0  0  0  0  0  0  0  0  0  0  0  0
    2.4678    4.9227   -0.7822 H   0  0  0  0  0  0  0  0  0  0  0  0
    0.8215    4.9331   -0.1282 H   0  0  0  0  0  0  0  0  0  0  0  0
    2.1709    5.4878    0.8702 H   0  0  0  0  0  0  0  0  0  0  0  0
   -0.4692    0.7806    2.7058 H   0  0  0  0  0  0  0  0  0  0  0  0
   -0.8754   -0.9555    2.6866 H   0  0  0  0  0  0  0  0  0  0  0  0
   -2.0634    0.2297    3.3149 H   0  0  0  0  0  0  0  0  0  0  0  0
   -4.8301   -1.9900   -0.9420 H   0  0  0  0  0  0  0  0  0  0  0  0
   -3.2395   -2.7858   -1.1359 H   0  0  0  0  0  0  0  0  0  0  0  0
   -3.6718   -1.3933   -2.1700 H   0  0  0  0  0  0  0  0  0  0  0  0
  1  2  1  0  0  0  0
  2  3  1  0  0  0  0
  3  4  4  0  0  0  0
  4  5  2  0  0  0  0
  4  6  1  0  0  0  0
  6  7  1  0  0  0  0
  7  8  1  0  0  0  0
  7  9  1  0  0  0  0
  9 10  2  0  0  0  0
  9 11  1  0  0  0  0
 11 12  1  0  0  0  0
 12 13  1  0  0  0  0
  7 14  1  0  0  0  0
 14 15  1  0  0  0  0
 15 16  2  0  0  0  0
 15 17  2  0  0  0  0
 17 18  1  0  0  0  0
 15 19  1  0  0  0  0
 19 20  1  0  0  0  0
  1 21  1  0  0  0  0
  1 22  1  0  0  0  0
  1 23  1  0  0  0  0
  2 24  1  0  0  0  0
  2 25  1  0  0  0  0
  6 26  1  0  0  0  0
  6 27  1  0  0  0  0
 12 28  1  0  0  0  0
 12 29  1  0  0  0  0
 13 30  1  0  0  0  0
 13 31  1  0  0  0  0
 13 32  1  0  0  0  0
 18 33  1  0  0  0  0
 18 34  1  0  0  0  0
 18 35  1  0  0  0  0
 20 36  1  0  0  0  0
 20 37  1  0  0  0  0
 20 38  1  0  0  0  0
M  END
