 xtb: 6.7.1 (edcfbbe)
          04092513583D

 41 40  0     0  0            999 V2000
    5.8325   -1.0405   -0.3973 C   0  0  0  0  0  0  0  0  0  0  0  0
    5.0353   -0.3226   -1.4676 C   0  0  0  0  0  0  0  0  0  0  0  0
    3.6324   -0.6693   -1.4422 O   0  0  0  0  0  0  0  0  0  0  0  0
    2.6728   -0.2341   -0.2586 P   0  0  0  0  0  0  0  0  0  0  0  0
    2.9743    1.5654    0.4666 S   0  0  0  0  0  0  0  0  0  0  0  0
    2.8901   -1.4255    0.7745 O   0  0  0  0  0  0  0  0  0  0  0  0
    2.5098   -1.3439    2.1562 C   0  0  0  0  0  0  0  0  0  0  0  0
    1.0103   -1.4585    2.3396 C   0  0  0  0  0  0  0  0  0  0  0  0
    0.8129   -0.6379   -1.1951 S   0  0  0  0  0  0  0  0  0  0  0  0
    0.0946    1.0344   -1.2076 C   0  0  0  0  0  0  0  0  0  0  0  0
   -0.7981    1.4742    0.3117 S   0  0  0  0  0  0  0  0  0  0  0  0
   -2.5100    0.2775   -0.0100 P   0  0  0  0  0  0  0  0  0  0  0  0
   -3.1768    0.1420   -1.8526 S   0  0  0  0  0  0  0  0  0  0  0  0
   -3.5607    0.8035    1.0603 O   0  0  0  0  0  0  0  0  0  0  0  0
   -4.5620    1.7951    0.7712 C   0  0  0  0  0  0  0  0  0  0  0  0
   -3.9743    3.1831    0.6146 C   0  0  0  0  0  0  0  0  0  0  0  0
   -2.0180   -1.0744    0.6528 O   0  0  0  0  0  0  0  0  0  0  0  0
   -2.6008   -2.3534    0.3312 C   0  0  0  0  0  0  0  0  0  0  0  0
   -4.0030   -2.4986    0.8856 C   0  0  0  0  0  0  0  0  0  0  0  0
    5.5379   -0.6895    0.5903 H   0  0  0  0  0  0  0  0  0  0  0  0
    5.6634   -2.1125   -0.4554 H   0  0  0  0  0  0  0  0  0  0  0  0
    6.8888   -0.8339   -0.5419 H   0  0  0  0  0  0  0  0  0  0  0  0
    5.3554   -0.6154   -2.4685 H   0  0  0  0  0  0  0  0  0  0  0  0
    5.1246    0.7621   -1.3505 H   0  0  0  0  0  0  0  0  0  0  0  0
    3.0339   -2.1791    2.6237 H   0  0  0  0  0  0  0  0  0  0  0  0
    2.8779   -0.3966    2.5640 H   0  0  0  0  0  0  0  0  0  0  0  0
    0.7793   -1.5164    3.3984 H   0  0  0  0  0  0  0  0  0  0  0  0
    0.5085   -0.5870    1.9208 H   0  0  0  0  0  0  0  0  0  0  0  0
    0.6377   -2.3487    1.8389 H   0  0  0  0  0  0  0  0  0  0  0  0
   -0.5998    1.0625   -2.0471 H   0  0  0  0  0  0  0  0  0  0  0  0
    0.8857    1.7736   -1.3183 H   0  0  0  0  0  0  0  0  0  0  0  0
   -5.0916    1.4981   -0.1399 H   0  0  0  0  0  0  0  0  0  0  0  0
   -5.2365    1.7419    1.6271 H   0  0  0  0  0  0  0  0  0  0  0  0
   -4.7818    3.9020    0.5138 H   0  0  0  0  0  0  0  0  0  0  0  0
   -3.3697    3.4398    1.4807 H   0  0  0  0  0  0  0  0  0  0  0  0
   -3.3482    3.2284   -0.2753 H   0  0  0  0  0  0  0  0  0  0  0  0
   -2.5996   -2.4703   -0.7572 H   0  0  0  0  0  0  0  0  0  0  0  0
   -1.9152   -3.0738    0.7791 H   0  0  0  0  0  0  0  0  0  0  0  0
   -4.6734   -1.7952    0.3936 H   0  0  0  0  0  0  0  0  0  0  0  0
   -4.3567   -3.5086    0.7014 H   0  0  0  0  0  0  0  0  0  0  0  0
   -4.0088   -2.3023    1.9544 H   0  0  0  0  0  0  0  0  0  0  0  0
  1  2  1  0  0  0  0
  2  3  1  0  0  0  0
  3  4  2  0  0  0  0
  4  5  2  0  0  0  0
  4  6  2  0  0  0  0
  6  7  1  0  0  0  0
  7  8  1  0  0  0  0
  4  9  1  0  0  0  0
  9 10  1  0  0  0  0
 10 11  1  0  0  0  0
 11 12  1  0  0  0  0
 12 13  2  0  0  0  0
 12 14  2  0  0  0  0
 14 15  1  0  0  0  0
 15 16  1  0  0  0  0
 12 17  2  0  0  0  0
 17 18  1  0  0  0  0
 18 19  1  0  0  0  0
  1 20  1  0  0  0  0
  1 21  1  0  0  0  0
  1 22  1  0  0  0  0
  2 23  1  0  0  0  0
  2 24  1  0  0  0  0
  7 25  1  0  0  0  0
  7 26  1  0  0  0  0
  8 27  1  0  0  0  0
  8 28  1  0  0  0  0
  8 29  1  0  0  0  0
 10 30  1  0  0  0  0
 10 31  1  0  0  0  0
 15 32  1  0  0  0  0
 15 33  1  0  0  0  0
 16 34  1  0  0  0  0
 16 35  1  0  0  0  0
 16 36  1  0  0  0  0
 18 37  1  0  0  0  0
 18 38  1  0  0  0  0
 19 39  1  0  0  0  0
 19 40  1  0  0  0  0
 19 41  1  0  0  0  0
M  END
