 xtb: 6.7.1 (edcfbbe)
          04092507313D

 38 37  0     0  0            999 V2000
    5.4011   -0.5747   -1.9298 C   0  0  0  0  0  0  0  0  0  0  0  0
    4.6767   -0.8772   -0.6332 C   0  0  0  0  0  0  0  0  0  0  0  0
    3.2819   -1.0763   -0.9363 O   0  0  0  0  0  0  0  0  0  0  0  0
    2.4857   -1.4297    0.0506 C   0  0  0  0  0  0  0  0  0  0  0  0
    2.8537   -1.6200    1.1880 O   0  0  0  0  0  0  0  0  0  0  0  0
    1.0480   -1.5805   -0.4161 C   0  0  0  0  0  0  0  0  0  0  0  0
    0.5548   -0.2806   -1.0571 C   0  0  0  0  0  0  0  0  0  0  0  0
    1.1837   -0.0301   -1.9146 H   0  0  0  0  0  0  0  0  0  0  0  0
    0.5791    0.8541   -0.0553 C   0  0  0  0  0  0  0  0  0  0  0  0
   -0.4387    1.4059    0.3218 O   0  0  0  0  0  0  0  0  0  0  0  0
    1.7809    1.1348    0.3545 O   0  0  0  0  0  0  0  0  0  0  0  0
    1.9486    2.1667    1.3555 C   0  0  0  0  0  0  0  0  0  0  0  0
    2.0776    3.5321    0.7027 C   0  0  0  0  0  0  0  0  0  0  0  0
   -1.1450   -0.4265   -1.6999 S   0  0  0  0  0  0  0  0  0  0  0  0
   -2.3039   -0.1605    0.0474 P   0  0  0  0  0  0  0  0  0  0  0  0
   -1.7712   -0.7210    1.8642 S   0  0  0  0  0  0  0  0  0  0  0  0
   -3.1523    1.1930   -0.0269 O   0  0  0  0  0  0  0  0  0  0  0  0
   -2.9851    2.3455    0.7970 C   0  0  0  0  0  0  0  0  0  0  0  0
   -3.4124   -1.1556   -0.5580 O   0  0  0  0  0  0  0  0  0  0  0  0
   -4.6091   -1.4647    0.1595 C   0  0  0  0  0  0  0  0  0  0  0  0
    6.4567   -0.4308   -1.7249 H   0  0  0  0  0  0  0  0  0  0  0  0
    5.2811   -1.4001   -2.6249 H   0  0  0  0  0  0  0  0  0  0  0  0
    4.9980    0.3261   -2.3820 H   0  0  0  0  0  0  0  0  0  0  0  0
    4.7547   -0.0515    0.0803 H   0  0  0  0  0  0  0  0  0  0  0  0
    5.0588   -1.7831   -0.1527 H   0  0  0  0  0  0  0  0  0  0  0  0
    0.4321   -1.8499    0.4447 H   0  0  0  0  0  0  0  0  0  0  0  0
    0.9970   -2.3762   -1.1600 H   0  0  0  0  0  0  0  0  0  0  0  0
    1.0950    2.1296    2.0373 H   0  0  0  0  0  0  0  0  0  0  0  0
    2.8598    1.8821    1.8823 H   0  0  0  0  0  0  0  0  0  0  0  0
    2.2597    4.2755    1.4715 H   0  0  0  0  0  0  0  0  0  0  0  0
    2.9041    3.5355   -0.0022 H   0  0  0  0  0  0  0  0  0  0  0  0
    1.1604    3.7864    0.1768 H   0  0  0  0  0  0  0  0  0  0  0  0
   -2.3276    3.0556    0.3001 H   0  0  0  0  0  0  0  0  0  0  0  0
   -2.5599    2.0610    1.7605 H   0  0  0  0  0  0  0  0  0  0  0  0
   -3.9803    2.7652    0.9280 H   0  0  0  0  0  0  0  0  0  0  0  0
   -5.0380   -2.3289   -0.3415 H   0  0  0  0  0  0  0  0  0  0  0  0
   -5.2961   -0.6198    0.1240 H   0  0  0  0  0  0  0  0  0  0  0  0
   -4.3717   -1.7060    1.1981 H   0  0  0  0  0  0  0  0  0  0  0  0
  1  2  1  0  0  0  0
  2  3  1  0  0  0  0
  3  4  1  0  0  0  0
  4  5  2  0  0  0  0
  4  6  1  0  0  0  0
  6  7  1  0  0  0  0
  7  8  1  0  0  0  0
  7  9  1  0  0  0  0
  9 10  2  0  0  0  0
  9 11  4  0  0  0  0
 11 12  1  0  0  0  0
 12 13  1  0  0  0  0
  7 14  1  0  0  0  0
 14 15  1  0  0  0  0
 15 16  2  0  0  0  0
 15 17  2  0  0  0  0
 17 18  1  0  0  0  0
 15 19  1  0  0  0  0
 19 20  1  0  0  0  0
  1 21  1  0  0  0  0
  1 22  1  0  0  0  0
  1 23  1  0  0  0  0
  2 24  1  0  0  0  0
  2 25  1  0  0  0  0
  6 26  1  0  0  0  0
  6 27  1  0  0  0  0
 12 28  1  0  0  0  0
 12 29  1  0  0  0  0
 13 30  1  0  0  0  0
 13 31  1  0  0  0  0
 13 32  1  0  0  0  0
 18 33  1  0  0  0  0
 18 34  1  0  0  0  0
 18 35  1  0  0  0  0
 20 36  1  0  0  0  0
 20 37  1  0  0  0  0
 20 38  1  0  0  0  0
M  END
