38
 xtb: 6.7.1 (edcfbbe)
C            4.78098749226546       -3.85591924809963       -1.98225249257635
C            4.11929512470209       -2.94885616872451       -0.97848668142929
O            3.11990035673805       -2.15686379249973       -1.70531694313295
C            2.42142347849884       -1.27759959724516       -0.98047172579457
O            2.55186730816338       -1.12419915521720        0.22252700085648
C            1.47937210628446       -0.47685640001087       -1.84183801502220
C            0.46235996865474        0.31616770606831       -1.02496474306757
H           -0.10866484769130        0.95068717283904       -1.71348523617433
C            1.16050758292676        1.27216724139928       -0.06750582617557
O            2.08205210734642        1.97256209270650       -0.45241704173614
O            0.63774243003331        1.31873837210787        1.15047759593774
C            1.24291892776955        2.28359444150771        2.07753936418142
C            0.51677177050628        2.15543551352144        3.39073101387275
S           -0.74510225168599       -0.86625734236368       -0.27286495020779
P           -2.38550536553894        0.39713561974600        0.19438622168749
S           -2.54898258286692        2.01734162764500       -0.86387830001133
O           -3.59490507431898       -0.66969473049516        0.14226260213832
C           -4.10653224126326       -1.12948868629553       -1.14021001187029
O           -2.35712052504594        0.72291180494043        1.76441570911757
C           -2.13808429575674       -0.32448625273642        2.75555033566807
H            5.53490896878435       -4.46027185102798       -1.46942404567234
H            4.05426230130127       -4.53155032017892       -2.44195815831832
H            5.27888391711849       -3.27911311554651       -2.76669295605002
H            4.82868705031152       -2.25651324322827       -0.51625812614930
H            3.60297567368635       -3.50937817493786       -0.19406775929868
H            0.98200757525609       -1.12810639055322       -2.56475509910844
H            2.08927568569893        0.22686617487976       -2.42044093572244
H            2.30564479996191        2.04080765743322        2.16742007065730
H            1.13762760233229        3.28104861669855        1.64130398422464
H            0.95873187788814        2.85707425016437        4.10438018489607
H           -0.54376782507999        2.39901472103769        3.28218756201248
H            0.61470906688536        1.14521938243833        3.79823734999740
H           -4.56209077963420       -0.29463818980850       -1.67821703759784
H           -4.85847552330434       -1.88183542549894       -0.90265191406210
H           -3.30548247209260       -1.57592363108097       -1.73578260576456
H           -1.13300374433336       -0.73933626017382        2.64541166118722
H           -2.89179523686887       -1.10897530532121        2.65449929973689
H           -2.23725773849049        0.16629902697537        3.72351179849299
