 xtb: 6.7.1 (edcfbbe)
          04092513593D

 41 40  0     0  0            999 V2000
    1.2443   -2.8547    1.0228 C   0  0  0  0  0  0  0  0  0  0  0  0
    2.1503   -1.7146    1.4405 C   0  0  0  0  0  0  0  0  0  0  0  0
    1.6450   -0.4653    0.9274 O   0  0  0  0  0  0  0  0  0  0  0  0
    2.3462    0.2956   -0.2903 P   0  0  0  0  0  0  0  0  0  0  0  0
    3.0837   -0.8273   -1.7065 S   0  0  0  0  0  0  0  0  0  0  0  0
    3.4970    1.2020    0.3224 O   0  0  0  0  0  0  0  0  0  0  0  0
    3.2963    2.1952    1.3578 C   0  0  0  0  0  0  0  0  0  0  0  0
    3.3947    1.5873    2.7434 C   0  0  0  0  0  0  0  0  0  0  0  0
    0.7979    1.6549   -0.7636 S   0  0  0  0  0  0  0  0  0  0  0  0
    0.0443    0.6817   -2.0913 C   0  0  0  0  0  0  0  0  0  0  0  0
   -0.6579   -0.8913   -1.5268 S   0  0  0  0  0  0  0  0  0  0  0  0
   -2.1523   -0.0946   -0.2709 P   0  0  0  0  0  0  0  0  0  0  0  0
   -2.9942    1.5889   -0.8345 S   0  0  0  0  0  0  0  0  0  0  0  0
   -1.4248   -0.0929    1.1286 O   0  0  0  0  0  0  0  0  0  0  0  0
   -1.8723    0.6914    2.2590 C   0  0  0  0  0  0  0  0  0  0  0  0
   -0.6504    1.1806    3.0087 C   0  0  0  0  0  0  0  0  0  0  0  0
   -3.1651   -1.3076   -0.0866 O   0  0  0  0  0  0  0  0  0  0  0  0
   -4.1416   -1.6550   -1.0894 C   0  0  0  0  0  0  0  0  0  0  0  0
   -5.1696   -2.5626   -0.4435 C   0  0  0  0  0  0  0  0  0  0  0  0
    0.2204   -2.6414    1.3199 H   0  0  0  0  0  0  0  0  0  0  0  0
    1.2739   -2.9789   -0.0577 H   0  0  0  0  0  0  0  0  0  0  0  0
    1.5779   -3.7716    1.4979 H   0  0  0  0  0  0  0  0  0  0  0  0
    3.1704   -1.8702    1.0755 H   0  0  0  0  0  0  0  0  0  0  0  0
    2.1655   -1.5970    2.5262 H   0  0  0  0  0  0  0  0  0  0  0  0
    4.0951    2.9182    1.1847 H   0  0  0  0  0  0  0  0  0  0  0  0
    2.3275    2.6771    1.2000 H   0  0  0  0  0  0  0  0  0  0  0  0
    4.3314    1.0455    2.8461 H   0  0  0  0  0  0  0  0  0  0  0  0
    3.3600    2.3830    3.4809 H   0  0  0  0  0  0  0  0  0  0  0  0
    2.5678    0.9063    2.9226 H   0  0  0  0  0  0  0  0  0  0  0  0
    0.7969    0.4276   -2.8372 H   0  0  0  0  0  0  0  0  0  0  0  0
   -0.7427    1.3063   -2.5136 H   0  0  0  0  0  0  0  0  0  0  0  0
   -2.4788    1.5269    1.8931 H   0  0  0  0  0  0  0  0  0  0  0  0
   -2.4909    0.0398    2.8802 H   0  0  0  0  0  0  0  0  0  0  0  0
   -0.0599    1.8335    2.3708 H   0  0  0  0  0  0  0  0  0  0  0  0
   -0.9657    1.7285    3.8907 H   0  0  0  0  0  0  0  0  0  0  0  0
   -0.0408    0.3328    3.3078 H   0  0  0  0  0  0  0  0  0  0  0  0
   -4.5977   -0.7335   -1.4662 H   0  0  0  0  0  0  0  0  0  0  0  0
   -3.6239   -2.1597   -1.9096 H   0  0  0  0  0  0  0  0  0  0  0  0
   -5.8936   -2.8689   -1.1915 H   0  0  0  0  0  0  0  0  0  0  0  0
   -4.6807   -3.4422   -0.0349 H   0  0  0  0  0  0  0  0  0  0  0  0
   -5.6821   -2.0390    0.3584 H   0  0  0  0  0  0  0  0  0  0  0  0
  1  2  1  0  0  0  0
  2  3  1  0  0  0  0
  3  4  1  0  0  0  0
  4  5  2  0  0  0  0
  4  6  2  0  0  0  0
  6  7  1  0  0  0  0
  7  8  1  0  0  0  0
  4  9  1  0  0  0  0
  9 10  1  0  0  0  0
 10 11  1  0  0  0  0
 11 12  1  0  0  0  0
 12 13  2  0  0  0  0
 12 14  2  0  0  0  0
 14 15  1  0  0  0  0
 15 16  1  0  0  0  0
 12 17  2  0  0  0  0
 17 18  1  0  0  0  0
 18 19  1  0  0  0  0
  1 20  1  0  0  0  0
  1 21  1  0  0  0  0
  1 22  1  0  0  0  0
  2 23  1  0  0  0  0
  2 24  1  0  0  0  0
  7 25  1  0  0  0  0
  7 26  1  0  0  0  0
  8 27  1  0  0  0  0
  8 28  1  0  0  0  0
  8 29  1  0  0  0  0
 10 30  1  0  0  0  0
 10 31  1  0  0  0  0
 15 32  1  0  0  0  0
 15 33  1  0  0  0  0
 16 34  1  0  0  0  0
 16 35  1  0  0  0  0
 16 36  1  0  0  0  0
 18 37  1  0  0  0  0
 18 38  1  0  0  0  0
 19 39  1  0  0  0  0
 19 40  1  0  0  0  0
 19 41  1  0  0  0  0
M  END
