 xtb: 6.7.1 (edcfbbe)
          04092505203D

 41 40  0     0  0            999 V2000
    3.8995   -1.1826   -2.5353 C   0  0  0  0  0  0  0  0  0  0  0  0
    4.0964    0.2131   -1.9811 C   0  0  0  0  0  0  0  0  0  0  0  0
    3.6217    0.3351   -0.6279 O   0  0  0  0  0  0  0  0  0  0  0  0
    2.0880    0.1827   -0.2431 P   0  0  0  0  0  0  0  0  0  0  0  0
    0.8532    1.0338   -1.4993 S   0  0  0  0  0  0  0  0  0  0  0  0
    1.9968    0.8402    1.1843 O   0  0  0  0  0  0  0  0  0  0  0  0
    2.8178    0.4743    2.3209 C   0  0  0  0  0  0  0  0  0  0  0  0
    4.0527    1.3476    2.4016 C   0  0  0  0  0  0  0  0  0  0  0  0
    1.9187   -1.9141    0.1109 S   0  0  0  0  0  0  0  0  0  0  0  0
    0.2135   -1.9839    0.7052 C   0  0  0  0  0  0  0  0  0  0  0  0
   -1.0177   -1.7558   -0.6299 S   0  0  0  0  0  0  0  0  0  0  0  0
   -2.1413   -0.2041    0.2455 P   0  0  0  0  0  0  0  0  0  0  0  0
   -1.2734    0.9558    1.5741 S   0  0  0  0  0  0  0  0  0  0  0  0
   -3.3061   -1.1028    0.8356 O   0  0  0  0  0  0  0  0  0  0  0  0
   -4.2080   -0.6366    1.8601 C   0  0  0  0  0  0  0  0  0  0  0  0
   -5.0966    0.4875    1.3710 C   0  0  0  0  0  0  0  0  0  0  0  0
   -2.8619    0.5183   -0.9660 O   0  0  0  0  0  0  0  0  0  0  0  0
   -2.4314    1.7372   -1.5959 C   0  0  0  0  0  0  0  0  0  0  0  0
   -3.6636    2.4864   -2.0610 C   0  0  0  0  0  0  0  0  0  0  0  0
    2.8368   -1.3874   -2.6592 H   0  0  0  0  0  0  0  0  0  0  0  0
    4.3853   -1.2557   -3.5030 H   0  0  0  0  0  0  0  0  0  0  0  0
    4.3224   -1.9223   -1.8600 H   0  0  0  0  0  0  0  0  0  0  0  0
    3.5713    0.9497   -2.5969 H   0  0  0  0  0  0  0  0  0  0  0  0
    5.1532    0.4739   -1.9095 H   0  0  0  0  0  0  0  0  0  0  0  0
    2.1622    0.6293    3.1805 H   0  0  0  0  0  0  0  0  0  0  0  0
    3.0863   -0.5827    2.2391 H   0  0  0  0  0  0  0  0  0  0  0  0
    4.6934    1.1754    1.5412 H   0  0  0  0  0  0  0  0  0  0  0  0
    3.7660    2.3956    2.4229 H   0  0  0  0  0  0  0  0  0  0  0  0
    4.5965    1.1059    3.3095 H   0  0  0  0  0  0  0  0  0  0  0  0
    0.0531   -1.2064    1.4568 H   0  0  0  0  0  0  0  0  0  0  0  0
    0.0847   -2.9778    1.1245 H   0  0  0  0  0  0  0  0  0  0  0  0
   -4.7837   -1.5257    2.1201 H   0  0  0  0  0  0  0  0  0  0  0  0
   -3.6123   -0.3105    2.7187 H   0  0  0  0  0  0  0  0  0  0  0  0
   -4.4943    1.3738    1.1746 H   0  0  0  0  0  0  0  0  0  0  0  0
   -5.6028    0.1947    0.4548 H   0  0  0  0  0  0  0  0  0  0  0  0
   -5.8321    0.7236    2.1336 H   0  0  0  0  0  0  0  0  0  0  0  0
   -1.8480    2.3228   -0.8773 H   0  0  0  0  0  0  0  0  0  0  0  0
   -1.7801    1.4748   -2.4335 H   0  0  0  0  0  0  0  0  0  0  0  0
   -3.3518    3.3804   -2.5906 H   0  0  0  0  0  0  0  0  0  0  0  0
   -4.2460    1.8568   -2.7272 H   0  0  0  0  0  0  0  0  0  0  0  0
   -4.2794    2.7687   -1.2114 H   0  0  0  0  0  0  0  0  0  0  0  0
  1  2  1  0  0  0  0
  2  3  1  0  0  0  0
  3  4  2  0  0  0  0
  4  5  2  0  0  0  0
  4  6  2  0  0  0  0
  6  7  1  0  0  0  0
  7  8  1  0  0  0  0
  4  9  1  0  0  0  0
  9 10  1  0  0  0  0
 10 11  1  0  0  0  0
 11 12  1  0  0  0  0
 12 13  2  0  0  0  0
 12 14  2  0  0  0  0
 14 15  1  0  0  0  0
 15 16  1  0  0  0  0
 12 17  2  0  0  0  0
 17 18  1  0  0  0  0
 18 19  1  0  0  0  0
  1 20  1  0  0  0  0
  1 21  1  0  0  0  0
  1 22  1  0  0  0  0
  2 23  1  0  0  0  0
  2 24  1  0  0  0  0
  7 25  1  0  0  0  0
  7 26  1  0  0  0  0
  8 27  1  0  0  0  0
  8 28  1  0  0  0  0
  8 29  1  0  0  0  0
 10 30  1  0  0  0  0
 10 31  1  0  0  0  0
 15 32  1  0  0  0  0
 15 33  1  0  0  0  0
 16 34  1  0  0  0  0
 16 35  1  0  0  0  0
 16 36  1  0  0  0  0
 18 37  1  0  0  0  0
 18 38  1  0  0  0  0
 19 39  1  0  0  0  0
 19 40  1  0  0  0  0
 19 41  1  0  0  0  0
M  END
