  21
 
 C         -3.7700455213       -0.0021224185        0.2336898931
 C         -2.2815861363       -0.0000890651        0.5591657580
 C         -1.4257321665       -0.0002766561       -0.7136938901
 C          0.0367036387       -0.0000951679       -0.3749917942
 C          0.7227713467        1.1948340658       -0.1959933309
 C          2.0637704701        1.1968677150        0.1449446489
 C          2.7389101998        0.0000249145        0.3150786619
 C          2.0639136452       -1.1968851822        0.1448775584
 C          0.7229293717       -1.1949638400       -0.1960640899
 H         -4.3598369313       -0.0013427380        1.1469640104
 H         -4.0342439676        0.8785543071       -0.3474608171
 H         -4.0324219778       -0.8851215310       -0.3447665821
 H         -2.0338037575       -0.8805888207        1.1560728496
 H         -2.0357869090        0.8820321858        1.1544998232
 H         -1.6693601976        0.8844195882       -1.3053412791
 H         -1.6691562906       -0.8853295122       -1.3048968481
 H          0.2014991671        2.1320107885       -0.3302357216
 H          2.5842111395        2.1342466619        0.2763669879
 H          3.7862358143        0.0001121058        0.5780827949
 H          2.5844574099       -2.1342275675        0.2761715722
 H          0.2017165936       -2.1321555274       -0.3304229698
          21
        -25.38100964
 C         -2.5616246564       -0.8308415726       -0.9672299202
 C         -2.4829729717        0.4825498713       -0.1992790586
 C         -1.5079623602        0.4041522237        0.9838767109
 C         -0.0953529347        0.1939511013        0.5192162471
 C          0.5019511002       -1.0586132142        0.5780192487
 C          1.7927655925       -1.2500345400        0.1160393288
 C          2.5057204764       -0.1881222646       -0.4132464212
 C          1.9208574613        1.0658723206       -0.4754116575
 C          0.6311064146        1.2532531159       -0.0125342576
 H         -2.8959826753       -1.6344764383       -0.3148545812
 H         -3.2623101493       -0.7459532653       -1.7942849330
 H         -1.5857748652       -1.0965695431       -1.3679215527
 H         -3.4743374324        0.7414079467        0.1782222615
 H         -2.1623821601        1.2782853471       -0.8749756323
 H         -1.8078203392       -0.4148296303        1.6401598653
 H         -1.5679520146        1.3364008871        1.5498916987
 H         -0.0483331374       -1.8922207078        0.9905130372
 H          2.2431414747       -2.2304736234        0.1693552240
 H          3.5127816944       -0.3358678847       -0.7739646686
 H          2.4727906474        1.8996280070       -0.8843808720
 H          0.1808948682        2.2346646032       -0.0603995898
