 xtb: 6.7.1 (edcfbbe)
          04092513593D

 41 40  0     0  0            999 V2000
    5.6869   -1.0255   -1.4119 C   0  0  0  0  0  0  0  0  0  0  0  0
    4.2630   -1.0390   -1.9346 C   0  0  0  0  0  0  0  0  0  0  0  0
    3.3492   -1.4666   -0.9021 O   0  0  0  0  0  0  0  0  0  0  0  0
    2.3907   -0.4528   -0.1373 P   0  0  0  0  0  0  0  0  0  0  0  0
    3.2581    1.1520    0.5873 S   0  0  0  0  0  0  0  0  0  0  0  0
    1.7056   -1.4253    0.9030 O   0  0  0  0  0  0  0  0  0  0  0  0
    2.1643   -1.5783    2.2699 C   0  0  0  0  0  0  0  0  0  0  0  0
    1.2542   -0.8195    3.2144 C   0  0  0  0  0  0  0  0  0  0  0  0
    0.8209   -0.1382   -1.5233 S   0  0  0  0  0  0  0  0  0  0  0  0
    0.1493    1.3855   -0.7951 C   0  0  0  0  0  0  0  0  0  0  0  0
   -0.8773    1.1005    0.6652 S   0  0  0  0  0  0  0  0  0  0  0  0
   -2.5898    0.3432   -0.3607 P   0  0  0  0  0  0  0  0  0  0  0  0
   -2.9799    1.1541   -2.0977 S   0  0  0  0  0  0  0  0  0  0  0  0
   -3.7653    0.4376    0.7057 O   0  0  0  0  0  0  0  0  0  0  0  0
   -4.6684    1.5543    0.7886 C   0  0  0  0  0  0  0  0  0  0  0  0
   -4.0177    2.7814    1.3942 C   0  0  0  0  0  0  0  0  0  0  0  0
   -2.3621   -1.2119   -0.5046 O   0  0  0  0  0  0  0  0  0  0  0  0
   -1.7400   -2.0977    0.4537 C   0  0  0  0  0  0  0  0  0  0  0  0
   -2.4653   -2.1305    1.7818 C   0  0  0  0  0  0  0  0  0  0  0  0
    5.7917   -0.2852   -0.6218 H   0  0  0  0  0  0  0  0  0  0  0  0
    5.9502   -2.0030   -1.0179 H   0  0  0  0  0  0  0  0  0  0  0  0
    6.3609   -0.7732   -2.2246 H   0  0  0  0  0  0  0  0  0  0  0  0
    4.1426   -1.7650   -2.7409 H   0  0  0  0  0  0  0  0  0  0  0  0
    3.9703   -0.0477   -2.2920 H   0  0  0  0  0  0  0  0  0  0  0  0
    2.1330   -2.6530    2.4552 H   0  0  0  0  0  0  0  0  0  0  0  0
    3.1942   -1.2206    2.3475 H   0  0  0  0  0  0  0  0  0  0  0  0
    0.2265   -1.1492    3.0940 H   0  0  0  0  0  0  0  0  0  0  0  0
    1.5723   -0.9987    4.2364 H   0  0  0  0  0  0  0  0  0  0  0  0
    1.3042    0.2476    3.0072 H   0  0  0  0  0  0  0  0  0  0  0  0
   -0.4539    1.8551   -1.5731 H   0  0  0  0  0  0  0  0  0  0  0  0
    0.9737    2.0277   -0.4835 H   0  0  0  0  0  0  0  0  0  0  0  0
   -5.0441    1.7734   -0.2161 H   0  0  0  0  0  0  0  0  0  0  0  0
   -5.4819    1.1835    1.4142 H   0  0  0  0  0  0  0  0  0  0  0  0
   -3.5603    2.5378    2.3493 H   0  0  0  0  0  0  0  0  0  0  0  0
   -3.2524    3.1703    0.7249 H   0  0  0  0  0  0  0  0  0  0  0  0
   -4.7743    3.5457    1.5434 H   0  0  0  0  0  0  0  0  0  0  0  0
   -1.7699   -3.0662   -0.0479 H   0  0  0  0  0  0  0  0  0  0  0  0
   -0.6983   -1.7902    0.5828 H   0  0  0  0  0  0  0  0  0  0  0  0
   -2.4082   -1.1588    2.2685 H   0  0  0  0  0  0  0  0  0  0  0  0
   -3.5111   -2.3859    1.6331 H   0  0  0  0  0  0  0  0  0  0  0  0
   -2.0012   -2.8785    2.4181 H   0  0  0  0  0  0  0  0  0  0  0  0
  1  2  1  0  0  0  0
  2  3  1  0  0  0  0
  3  4  2  0  0  0  0
  4  5  2  0  0  0  0
  4  6  2  0  0  0  0
  6  7  1  0  0  0  0
  7  8  1  0  0  0  0
  4  9  1  0  0  0  0
  9 10  1  0  0  0  0
 10 11  1  0  0  0  0
 11 12  1  0  0  0  0
 12 13  2  0  0  0  0
 12 14  2  0  0  0  0
 14 15  1  0  0  0  0
 15 16  1  0  0  0  0
 12 17  2  0  0  0  0
 17 18  1  0  0  0  0
 18 19  1  0  0  0  0
  1 20  1  0  0  0  0
  1 21  1  0  0  0  0
  1 22  1  0  0  0  0
  2 23  1  0  0  0  0
  2 24  1  0  0  0  0
  7 25  1  0  0  0  0
  7 26  1  0  0  0  0
  8 27  1  0  0  0  0
  8 28  1  0  0  0  0
  8 29  1  0  0  0  0
 10 30  1  0  0  0  0
 10 31  1  0  0  0  0
 15 32  1  0  0  0  0
 15 33  1  0  0  0  0
 16 34  1  0  0  0  0
 16 35  1  0  0  0  0
 16 36  1  0  0  0  0
 18 37  1  0  0  0  0
 18 38  1  0  0  0  0
 19 39  1  0  0  0  0
 19 40  1  0  0  0  0
 19 41  1  0  0  0  0
M  END
