  23
 
 C          3.4692710258       -0.2058305593       -0.1413945467
 C          2.2019974305        0.5402773334        0.2596233960
 C          0.9422618801       -0.1876768850       -0.2056261981
 C         -0.3273741950        0.5463849370        0.2212273979
 C         -1.6163987435       -0.0683086452       -0.3360525313
 C         -1.8728790107       -1.4623190953        0.2326517075
 C         -2.8028802830        0.8437487877       -0.0250502654
 H          4.3528783979        0.3334965384        0.1911741507
 H          3.4837714900       -1.1979813139        0.3043088651
 H          3.5197468374       -0.3159736396       -1.2224256345
 H          2.2198764390        1.5437421991       -0.1719712739
 H          2.1735980729        0.6486524104        1.3463159374
 H          0.9595252845       -0.2759592385       -1.2947809149
 H          0.9463426365       -1.1964700387        0.2103489110
 H         -0.3834750756        0.5663073542        1.3123744580
 H         -0.2603870875        1.5819151598       -0.1226827100
 H         -1.5174923713       -0.1489333398       -1.4248871510
 H         -2.8208057121       -1.8496889633       -0.1341981257
 H         -1.0890513753       -2.1553628736       -0.0600008868
 H         -1.9152224683       -1.4244551231        1.3192798892
 H         -3.7199197990        0.4328876806       -0.4408260093
 H         -2.6485655402        1.8341585105       -0.4470239440
 H         -2.9286807098        0.9446392058        1.0508497333
          23
        -23.15998959
 C          3.4650308479        0.2551667876        0.1455108724
 C          2.2080855323       -0.4960978237       -0.2773028318
 C          0.9382082682        0.1983732316        0.2109719581
 C         -0.3200686134       -0.5502051373       -0.2239644159
 C         -1.6182084878        0.0331770134        0.3457681513
 C         -1.9139766289        1.4198765564       -0.2216804290
 C         -2.7849818353       -0.9081359663        0.0477379563
 H          3.4600290541        1.2643614215       -0.2606232264
 H          3.5208218891        0.3234268300        1.2298057301
 H          4.3553344651       -0.2555677663       -0.2133682635
 H          2.2409905117       -1.5118155018        0.1236245381
 H          2.1797912716       -0.5720254487       -1.3667192588
 H          0.9606815998        0.2633034712        1.3017040353
 H          0.9208812810        1.2160095365       -0.1826263202
 H         -0.3788318630       -0.5550026346       -1.3151514513
 H         -0.2339683953       -1.5894166158        0.1041603580
 H         -1.5103592379        0.1175857132        1.4334441370
 H         -2.8621668113        1.7890575886        0.1624890048
 H         -1.1388789821        2.1297169701        0.0534384269
 H         -1.9767620554        1.3777107421       -1.3070549183
 H         -3.7093526386       -0.5150657595        0.4643728439
 H         -2.6062004690       -1.8912989804        0.4769967299
 H         -2.9132329332       -1.0208135194       -1.0267392069
