 xtb: 6.7.1 (edcfbbe)
          04092513583D

 41 40  0     0  0            999 V2000
    2.7849    0.0030    3.3868 C   0  0  0  0  0  0  0  0  0  0  0  0
    1.5049   -0.3740    2.6700 C   0  0  0  0  0  0  0  0  0  0  0  0
    1.4130    0.2474    1.3731 O   0  0  0  0  0  0  0  0  0  0  0  0
    2.2626   -0.2372    0.1262 P   0  0  0  0  0  0  0  0  0  0  0  0
    2.8104   -2.1213    0.1205 S   0  0  0  0  0  0  0  0  0  0  0  0
    3.4524    0.8175    0.1244 O   0  0  0  0  0  0  0  0  0  0  0  0
    4.6992    0.6065   -0.5635 C   0  0  0  0  0  0  0  0  0  0  0  0
    4.5602    0.7302   -2.0674 C   0  0  0  0  0  0  0  0  0  0  0  0
    0.9964    0.4158   -1.4338 S   0  0  0  0  0  0  0  0  0  0  0  0
   -0.0042   -1.0930   -1.5812 C   0  0  0  0  0  0  0  0  0  0  0  0
   -0.9996   -1.4828   -0.1126 S   0  0  0  0  0  0  0  0  0  0  0  0
   -2.2635    0.2094   -0.1689 P   0  0  0  0  0  0  0  0  0  0  0  0
   -2.8095    0.8745   -1.9325 S   0  0  0  0  0  0  0  0  0  0  0  0
   -1.4145    1.2016    0.7287 O   0  0  0  0  0  0  0  0  0  0  0  0
   -1.5039    2.6349    0.6091 C   0  0  0  0  0  0  0  0  0  0  0  0
   -2.7869    3.1729    1.2083 C   0  0  0  0  0  0  0  0  0  0  0  0
   -3.4545   -0.1662    0.8152 O   0  0  0  0  0  0  0  0  0  0  0  0
   -4.6989   -0.7391    0.3729 C   0  0  0  0  0  0  0  0  0  0  0  0
   -4.5544   -2.1886   -0.0446 C   0  0  0  0  0  0  0  0  0  0  0  0
    2.7678   -0.4124    4.3899 H   0  0  0  0  0  0  0  0  0  0  0  0
    3.6434   -0.4006    2.8515 H   0  0  0  0  0  0  0  0  0  0  0  0
    2.8819    1.0839    3.4441 H   0  0  0  0  0  0  0  0  0  0  0  0
    0.6207   -0.0118    3.1969 H   0  0  0  0  0  0  0  0  0  0  0  0
    1.4371   -1.4594    2.5406 H   0  0  0  0  0  0  0  0  0  0  0  0
    5.3540    1.3797   -0.1584 H   0  0  0  0  0  0  0  0  0  0  0  0
    5.0804   -0.3836   -0.2938 H   0  0  0  0  0  0  0  0  0  0  0  0
    5.5456    0.6774   -2.5204 H   0  0  0  0  0  0  0  0  0  0  0  0
    3.9485   -0.0821   -2.4571 H   0  0  0  0  0  0  0  0  0  0  0  0
    4.0939    1.6763   -2.3299 H   0  0  0  0  0  0  0  0  0  0  0  0
    0.6488   -1.9514   -1.7357 H   0  0  0  0  0  0  0  0  0  0  0  0
   -0.6602   -0.9340   -2.4363 H   0  0  0  0  0  0  0  0  0  0  0  0
   -0.6226    2.9972    1.1407 H   0  0  0  0  0  0  0  0  0  0  0  0
   -1.4290    2.9002   -0.4508 H   0  0  0  0  0  0  0  0  0  0  0  0
   -3.6424    2.8168    0.6357 H   0  0  0  0  0  0  0  0  0  0  0  0
   -2.8907    2.8432    2.2386 H   0  0  0  0  0  0  0  0  0  0  0  0
   -2.7682    4.2581    1.1759 H   0  0  0  0  0  0  0  0  0  0  0  0
   -5.3550   -0.6367    1.2387 H   0  0  0  0  0  0  0  0  0  0  0  0
   -5.0814   -0.1371   -0.4577 H   0  0  0  0  0  0  0  0  0  0  0  0
   -4.0860   -2.7676    0.7471 H   0  0  0  0  0  0  0  0  0  0  0  0
   -5.5382   -2.5973   -0.2546 H   0  0  0  0  0  0  0  0  0  0  0  0
   -3.9423   -2.2629   -0.9422 H   0  0  0  0  0  0  0  0  0  0  0  0
  1  2  1  0  0  0  0
  2  3  1  0  0  0  0
  3  4  2  0  0  0  0
  4  5  2  0  0  0  0
  4  6  2  0  0  0  0
  6  7  1  0  0  0  0
  7  8  1  0  0  0  0
  4  9  1  0  0  0  0
  9 10  1  0  0  0  0
 10 11  1  0  0  0  0
 11 12  1  0  0  0  0
 12 13  2  0  0  0  0
 12 14  2  0  0  0  0
 14 15  1  0  0  0  0
 15 16  1  0  0  0  0
 12 17  2  0  0  0  0
 17 18  1  0  0  0  0
 18 19  1  0  0  0  0
  1 20  1  0  0  0  0
  1 21  1  0  0  0  0
  1 22  1  0  0  0  0
  2 23  1  0  0  0  0
  2 24  1  0  0  0  0
  7 25  1  0  0  0  0
  7 26  1  0  0  0  0
  8 27  1  0  0  0  0
  8 28  1  0  0  0  0
  8 29  1  0  0  0  0
 10 30  1  0  0  0  0
 10 31  1  0  0  0  0
 15 32  1  0  0  0  0
 15 33  1  0  0  0  0
 16 34  1  0  0  0  0
 16 35  1  0  0  0  0
 16 36  1  0  0  0  0
 18 37  1  0  0  0  0
 18 38  1  0  0  0  0
 19 39  1  0  0  0  0
 19 40  1  0  0  0  0
 19 41  1  0  0  0  0
M  END
