18
 xtb: 6.7.1 (edcfbbe)
C            0.00119050237861       -2.41914324260995        0.05757280611705
C            1.20241582594484       -1.72285334355304        0.10829682414336
C            1.19170052490960       -0.32874288085299        0.08134963228678
C           -0.00340505781867        0.37762052715661        0.00634351614353
C           -1.19708031915268       -0.33544524659814       -0.03971839693650
C           -1.20312744413504       -1.72903699664475       -0.01819579870206
C           -2.50638447815382        0.38675258988827       -0.15007151765644
F           -3.43364303523875       -0.11262357978850        0.70585990142612
F           -2.40050529787639        1.70859679888049        0.10864550913427
F           -3.04060583134945        0.27367727210379       -1.39755691292183
C            2.50497483065499        0.39265581173654        0.13459270119417
F            2.37067526487027        1.73591929838436        0.10538637194174
F            3.20233153044854        0.08866990920511        1.26156295462835
F            3.30788655826227        0.05295322592127       -0.90933398784963
H            0.00291447634926       -3.50303910803458        0.07798970375702
H            2.14278257218126       -2.26127564764364        0.16861415622068
H           -0.00549078103094        1.45999928129460       -0.01448752345971
H           -2.14122490659099       -2.27280919027845       -0.05852713681182
