 xtb: 6.7.1 (edcfbbe)
          04092514003D

 41 40  0     0  0            999 V2000
    4.2288   -1.7049   -2.2523 C   0  0  0  0  0  0  0  0  0  0  0  0
    4.3640   -1.6512   -0.7443 C   0  0  0  0  0  0  0  0  0  0  0  0
    3.0893   -1.5492   -0.0857 O   0  0  0  0  0  0  0  0  0  0  0  0
    2.2020   -0.2279   -0.0878 P   0  0  0  0  0  0  0  0  0  0  0  0
    3.2278    1.4456   -0.0363 S   0  0  0  0  0  0  0  0  0  0  0  0
    1.2428   -0.5045    1.1422 O   0  0  0  0  0  0  0  0  0  0  0  0
    1.6332   -0.2243    2.5072 C   0  0  0  0  0  0  0  0  0  0  0  0
    0.3751    0.0433    3.3072 C   0  0  0  0  0  0  0  0  0  0  0  0
    0.8237   -0.5046   -1.6596 S   0  0  0  0  0  0  0  0  0  0  0  0
    0.2372    1.2120   -1.7641 C   0  0  0  0  0  0  0  0  0  0  0  0
   -0.5836    1.7955   -0.2646 S   0  0  0  0  0  0  0  0  0  0  0  0
   -2.2973    0.5124   -0.3515 P   0  0  0  0  0  0  0  0  0  0  0  0
   -2.8929   -0.0191   -2.1324 S   0  0  0  0  0  0  0  0  0  0  0  0
   -3.3909    1.3455    0.4161 O   0  0  0  0  0  0  0  0  0  0  0  0
   -3.2260    1.9774    1.7101 C   0  0  0  0  0  0  0  0  0  0  0  0
   -3.5313    1.0191    2.8433 C   0  0  0  0  0  0  0  0  0  0  0  0
   -1.9604   -0.6835    0.6452 O   0  0  0  0  0  0  0  0  0  0  0  0
   -1.6657   -2.0330    0.2529 C   0  0  0  0  0  0  0  0  0  0  0  0
   -2.6757   -2.9591    0.9020 C   0  0  0  0  0  0  0  0  0  0  0  0
    3.8510   -0.7554   -2.6290 H   0  0  0  0  0  0  0  0  0  0  0  0
    5.2040   -1.8942   -2.6904 H   0  0  0  0  0  0  0  0  0  0  0  0
    3.5429   -2.4957   -2.5449 H   0  0  0  0  0  0  0  0  0  0  0  0
    4.9783   -0.7969   -0.4426 H   0  0  0  0  0  0  0  0  0  0  0  0
    4.7893   -2.5741   -0.3471 H   0  0  0  0  0  0  0  0  0  0  0  0
    2.1732   -1.0963    2.8838 H   0  0  0  0  0  0  0  0  0  0  0  0
    2.3017    0.6435    2.5096 H   0  0  0  0  0  0  0  0  0  0  0  0
   -0.2918   -0.8120    3.2446 H   0  0  0  0  0  0  0  0  0  0  0  0
    0.6407    0.2182    4.3447 H   0  0  0  0  0  0  0  0  0  0  0  0
   -0.1353    0.9189    2.9142 H   0  0  0  0  0  0  0  0  0  0  0  0
   -0.4596    1.2396   -2.6018 H   0  0  0  0  0  0  0  0  0  0  0  0
    1.0830    1.8793   -1.9255 H   0  0  0  0  0  0  0  0  0  0  0  0
   -2.2089    2.3722    1.7798 H   0  0  0  0  0  0  0  0  0  0  0  0
   -3.9375    2.8050    1.6876 H   0  0  0  0  0  0  0  0  0  0  0  0
   -4.5252    0.5986    2.7161 H   0  0  0  0  0  0  0  0  0  0  0  0
   -2.8066    0.2105    2.8643 H   0  0  0  0  0  0  0  0  0  0  0  0
   -3.4903    1.5605    3.7834 H   0  0  0  0  0  0  0  0  0  0  0  0
   -1.7087   -2.1098   -0.8388 H   0  0  0  0  0  0  0  0  0  0  0  0
   -0.6473   -2.2425    0.5892 H   0  0  0  0  0  0  0  0  0  0  0  0
   -3.6739   -2.7319    0.5351 H   0  0  0  0  0  0  0  0  0  0  0  0
   -2.4298   -3.9863    0.6539 H   0  0  0  0  0  0  0  0  0  0  0  0
   -2.6606   -2.8355    1.9813 H   0  0  0  0  0  0  0  0  0  0  0  0
  1  2  1  0  0  0  0
  2  3  1  0  0  0  0
  3  4  2  0  0  0  0
  4  5  2  0  0  0  0
  4  6  2  0  0  0  0
  6  7  1  0  0  0  0
  7  8  1  0  0  0  0
  4  9  1  0  0  0  0
  9 10  1  0  0  0  0
 10 11  1  0  0  0  0
 11 12  1  0  0  0  0
 12 13  2  0  0  0  0
 12 14  2  0  0  0  0
 14 15  1  0  0  0  0
 15 16  1  0  0  0  0
 12 17  2  0  0  0  0
 17 18  1  0  0  0  0
 18 19  1  0  0  0  0
  1 20  1  0  0  0  0
  1 21  1  0  0  0  0
  1 22  1  0  0  0  0
  2 23  1  0  0  0  0
  2 24  1  0  0  0  0
  7 25  1  0  0  0  0
  7 26  1  0  0  0  0
  8 27  1  0  0  0  0
  8 28  1  0  0  0  0
  8 29  1  0  0  0  0
 10 30  1  0  0  0  0
 10 31  1  0  0  0  0
 15 32  1  0  0  0  0
 15 33  1  0  0  0  0
 16 34  1  0  0  0  0
 16 35  1  0  0  0  0
 16 36  1  0  0  0  0
 18 37  1  0  0  0  0
 18 38  1  0  0  0  0
 19 39  1  0  0  0  0
 19 40  1  0  0  0  0
 19 41  1  0  0  0  0
M  END
