  18
 
 C         -1.3733162037        0.4584375643       -0.2416419782
 C         -0.2896316169        1.4184420198        0.2413314242
 C          1.0836111370        0.9599661125       -0.2416629221
 C          1.3731640312       -0.4584520074        0.2415754046
 C          0.2895173525       -1.4185098730       -0.2414038142
 C         -1.0837006936       -0.9599849141        0.2415760319
 H         -1.4039447959        0.4685548127       -1.3336829036
 H         -2.3493626042        0.7843243104        0.1238895042
 H         -0.4954495846        2.4265991106       -0.1243627363
 H         -0.2961088141        1.4502476918        1.3333537977
 H          1.1077941640        0.9812636799       -1.3337049192
 H          1.8538373933        1.6423354607        0.1238331367
 H          2.3492082514       -0.7843514829       -0.1239416942
 H          1.4037759642       -0.4685668335        1.3336121259
 H          0.2959994765       -1.4502923055       -1.3334309927
 H          0.4953375840       -2.4266836543        0.1242729445
 H         -1.8539369873       -1.6423591979       -0.1239269152
 H         -1.1079076006       -0.9812980991        1.3336083199
          18
        -18.98682056
 C         -1.4477590597       -0.0100854019       -0.2415211880
 C         -0.7150299179       -1.2586501139        0.2416082008
 C          0.7325557151       -1.2485627689       -0.2417248545
 C          1.4476089000        0.0100638139        0.2417503869
 C          0.7151279483        1.2586312925       -0.2416913066
 C         -0.7324871281        1.2485835124        0.2415679337
 H         -2.4766479688       -0.0172601503        0.1243181229
 H         -1.4802916809       -0.0103319725       -1.3335740766
 H         -0.7307832440       -1.2866061845        1.3336922636
 H         -1.2233230284       -2.1532997969       -0.1239017428
 H          1.2532634469       -2.1361707549        0.1236263177
 H          0.7488320348       -1.2761835912       -1.3338056880
 H          1.4795647260        0.0102376191        1.3338365351
 H          2.4766536059        0.0172780928       -0.1235879529
 H          1.2234186616        2.1533353313        0.1238251215
 H          0.7311051123        1.2865686317       -1.3337616091
 H         -0.7488647329        1.2766224381        1.3336520386
 H         -1.2531230556        2.1360446935       -0.1241902973
