41
 xtb: 6.7.1 (edcfbbe)
C            4.49591918621947       -0.76185137497513       -2.65390080608367
C            4.70234977408102       -1.29736826087831       -1.25924971098017
O            3.42864477401506       -1.59503053029607       -0.58838840474597
P            2.50791872215632       -0.46131778989829        0.09063625407118
S            3.39970188436525        1.14022911964091        0.75189658004462
O            1.68882120459172       -1.32439844350066        1.17195351776913
C            2.17777870542687       -1.48815540866932        2.55089010186054
C            3.38526608965195       -2.39021147511500        2.62212990167844
S            1.03962161274916       -0.18241921713462       -1.41026042436527
C            0.25207629845728        1.36895896824504       -0.82523318018779
S           -0.81586392949474        1.26315362871652        0.66317462443951
P           -2.67522060065717        0.61930117246148       -0.14574203668937
S           -2.69286552890795        0.18529568096267       -2.04349143118950
O           -3.58915878387481        1.84836724434352        0.34825547131624
C           -5.05076631821594        1.78315296492631        0.15858864577306
C           -5.62239460694759        3.07215334893725        0.68694078144710
O           -3.19074869787194       -0.53254031702540        0.85526262325094
C           -3.00949071038666       -1.96374774392178        0.58460060899625
C           -1.58906121579642       -2.41072728119004        0.82609729781004
H            4.02339062825921        0.22439968490739       -2.64204338561577
H            5.47402029287923       -0.66510215252809       -3.13652387438877
H            3.88389742925989       -1.44474451961410       -3.25022686275498
H            5.26570381582869       -0.60093229251167       -0.63122024315911
H            5.21436118199411       -2.26164083196872       -1.27021420819698
H            2.38200163794245       -0.49410731509545        2.96054738177023
H            1.32075811793221       -1.91893754527324        3.07247039780124
H            3.63208877558075       -2.55731875237647        3.67574985459163
H            3.17868446056499       -3.35887404144377        2.15817894292927
H            4.25667512725945       -1.94010036928394        2.13705749902523
H           -0.32727890244837        1.74610507886909       -1.67147998869642
H            1.03529987688293        2.08987846623286       -0.57222021931380
H           -5.25121177243330        1.65677672426117       -0.91008741466282
H           -5.42929456353473        0.91482446875466        0.70600749056096
H           -5.23240753679126        3.93037395784935        0.13268306485773
H           -6.71009701692349        3.04946498816308        0.56918687146524
H           -5.39293048491278        3.19590131722016        1.74901756759222
H           -3.70729035167708       -2.44354202465330        1.27395120984282
H           -3.33135048129242       -2.16066781839120       -0.44269728690408
H           -1.54308038700072       -3.49931958365359        0.71674085800287
H           -0.90070764747367       -1.96657921676351        0.10198283262748
H           -1.26063292517983       -2.15084141807375        1.83664066197048
