 xtb: 6.7.1 (edcfbbe)
          04092505213D

 41 40  0     0  0            999 V2000
    2.7218   -1.9150   -2.4495 C   0  0  0  0  0  0  0  0  0  0  0  0
    3.9025   -1.4687   -1.6119 C   0  0  0  0  0  0  0  0  0  0  0  0
    3.5735   -1.4076   -0.2131 O   0  0  0  0  0  0  0  0  0  0  0  0
    2.5100   -0.3786    0.3630 P   0  0  0  0  0  0  0  0  0  0  0  0
    2.5372    1.4022   -0.4734 S   0  0  0  0  0  0  0  0  0  0  0  0
    2.8133   -0.3899    1.9208 O   0  0  0  0  0  0  0  0  0  0  0  0
    3.7523    0.5238    2.5242 C   0  0  0  0  0  0  0  0  0  0  0  0
    5.1770    0.2204    2.1113 C   0  0  0  0  0  0  0  0  0  0  0  0
    0.7208   -1.4949    0.4108 S   0  0  0  0  0  0  0  0  0  0  0  0
   -0.3223   -0.2166    1.1643 C   0  0  0  0  0  0  0  0  0  0  0  0
   -0.8505    1.0772   -0.0069 S   0  0  0  0  0  0  0  0  0  0  0  0
   -2.8380    0.3675   -0.3101 P   0  0  0  0  0  0  0  0  0  0  0  0
   -3.9379    1.3852   -1.5686 S   0  0  0  0  0  0  0  0  0  0  0  0
   -3.4262    0.2070    1.1607 O   0  0  0  0  0  0  0  0  0  0  0  0
   -4.1816    1.2596    1.7843 C   0  0  0  0  0  0  0  0  0  0  0  0
   -3.3112    2.4407    2.1666 C   0  0  0  0  0  0  0  0  0  0  0  0
   -2.6825   -1.1859   -0.5981 O   0  0  0  0  0  0  0  0  0  0  0  0
   -2.6752   -1.7049   -1.9397 C   0  0  0  0  0  0  0  0  0  0  0  0
   -1.3844   -1.3840   -2.6656 C   0  0  0  0  0  0  0  0  0  0  0  0
    2.3170   -2.8481   -2.0649 H   0  0  0  0  0  0  0  0  0  0  0  0
    1.9437   -1.1522   -2.4217 H   0  0  0  0  0  0  0  0  0  0  0  0
    3.0379   -2.0540   -3.4783 H   0  0  0  0  0  0  0  0  0  0  0  0
    4.2450   -0.4790   -1.9307 H   0  0  0  0  0  0  0  0  0  0  0  0
    4.7261   -2.1823   -1.6573 H   0  0  0  0  0  0  0  0  0  0  0  0
    3.4773    1.5440    2.2367 H   0  0  0  0  0  0  0  0  0  0  0  0
    3.6024    0.3834    3.5956 H   0  0  0  0  0  0  0  0  0  0  0  0
    5.3039    0.4207    1.0483 H   0  0  0  0  0  0  0  0  0  0  0  0
    5.8574    0.8526    2.6731 H   0  0  0  0  0  0  0  0  0  0  0  0
    5.4090   -0.8240    2.3029 H   0  0  0  0  0  0  0  0  0  0  0  0
    0.2387    0.2737    1.9561 H   0  0  0  0  0  0  0  0  0  0  0  0
   -1.2032   -0.7200    1.5558 H   0  0  0  0  0  0  0  0  0  0  0  0
   -4.9723    1.5748    1.0960 H   0  0  0  0  0  0  0  0  0  0  0  0
   -4.6225    0.7828    2.6610 H   0  0  0  0  0  0  0  0  0  0  0  0
   -2.4905    2.1208    2.8037 H   0  0  0  0  0  0  0  0  0  0  0  0
   -2.9010    2.9061    1.2705 H   0  0  0  0  0  0  0  0  0  0  0  0
   -3.9129    3.1716    2.6973 H   0  0  0  0  0  0  0  0  0  0  0  0
   -2.8038   -2.7796   -1.8060 H   0  0  0  0  0  0  0  0  0  0  0  0
   -3.5332   -1.2890   -2.4780 H   0  0  0  0  0  0  0  0  0  0  0  0
   -0.5356   -1.7712   -2.1075 H   0  0  0  0  0  0  0  0  0  0  0  0
   -1.4035   -1.8360   -3.6519 H   0  0  0  0  0  0  0  0  0  0  0  0
   -1.2775   -0.3042   -2.7742 H   0  0  0  0  0  0  0  0  0  0  0  0
  1  2  1  0  0  0  0
  2  3  1  0  0  0  0
  3  4  2  0  0  0  0
  4  5  2  0  0  0  0
  4  6  2  0  0  0  0
  6  7  1  0  0  0  0
  7  8  1  0  0  0  0
  4  9  1  0  0  0  0
  9 10  1  0  0  0  0
 10 11  1  0  0  0  0
 11 12  1  0  0  0  0
 12 13  2  0  0  0  0
 12 14  2  0  0  0  0
 14 15  1  0  0  0  0
 15 16  1  0  0  0  0
 12 17  2  0  0  0  0
 17 18  1  0  0  0  0
 18 19  1  0  0  0  0
  1 20  1  0  0  0  0
  1 21  1  0  0  0  0
  1 22  1  0  0  0  0
  2 23  1  0  0  0  0
  2 24  1  0  0  0  0
  7 25  1  0  0  0  0
  7 26  1  0  0  0  0
  8 27  1  0  0  0  0
  8 28  1  0  0  0  0
  8 29  1  0  0  0  0
 10 30  1  0  0  0  0
 10 31  1  0  0  0  0
 15 32  1  0  0  0  0
 15 33  1  0  0  0  0
 16 34  1  0  0  0  0
 16 35  1  0  0  0  0
 16 36  1  0  0  0  0
 18 37  1  0  0  0  0
 18 38  1  0  0  0  0
 19 39  1  0  0  0  0
 19 40  1  0  0  0  0
 19 41  1  0  0  0  0
M  END
