 xtb: 6.7.1 (edcfbbe)
          04092505213D

 41 40  0     0  0            999 V2000
    4.8409   -1.2889   -1.5160 C   0  0  0  0  0  0  0  0  0  0  0  0
    4.8558   -0.0101   -0.7045 C   0  0  0  0  0  0  0  0  0  0  0  0
    3.7050    0.1049    0.1509 O   0  0  0  0  0  0  0  0  0  0  0  0
    2.2313    0.2536   -0.4215 P   0  0  0  0  0  0  0  0  0  0  0  0
    2.0496    1.4073   -1.9910 S   0  0  0  0  0  0  0  0  0  0  0  0
    1.4183    0.7654    0.8307 O   0  0  0  0  0  0  0  0  0  0  0  0
    1.5873    0.1785    2.1510 C   0  0  0  0  0  0  0  0  0  0  0  0
    2.4996    1.0378    3.0003 C   0  0  0  0  0  0  0  0  0  0  0  0
    1.5938   -1.7670   -0.6689 S   0  0  0  0  0  0  0  0  0  0  0  0
   -0.1248   -1.4099   -1.0915 C   0  0  0  0  0  0  0  0  0  0  0  0
   -1.1841   -1.3286    0.3857 S   0  0  0  0  0  0  0  0  0  0  0  0
   -2.4013    0.3346   -0.1495 P   0  0  0  0  0  0  0  0  0  0  0  0
   -1.4289    1.7464   -1.1056 S   0  0  0  0  0  0  0  0  0  0  0  0
   -3.1061    0.7626    1.2045 O   0  0  0  0  0  0  0  0  0  0  0  0
   -2.3600    1.3192    2.3072 C   0  0  0  0  0  0  0  0  0  0  0  0
   -2.2278    0.2919    3.4155 C   0  0  0  0  0  0  0  0  0  0  0  0
   -3.6079   -0.1967   -1.0108 O   0  0  0  0  0  0  0  0  0  0  0  0
   -4.7967   -0.8519   -0.4957 C   0  0  0  0  0  0  0  0  0  0  0  0
   -4.4909   -2.1648    0.1929 C   0  0  0  0  0  0  0  0  0  0  0  0
    4.6912   -2.1487   -0.8678 H   0  0  0  0  0  0  0  0  0  0  0  0
    4.0337   -1.2543   -2.2462 H   0  0  0  0  0  0  0  0  0  0  0  0
    5.7850   -1.3911   -2.0414 H   0  0  0  0  0  0  0  0  0  0  0  0
    4.8833    0.8629   -1.3635 H   0  0  0  0  0  0  0  0  0  0  0  0
    5.6978    0.0180   -0.0113 H   0  0  0  0  0  0  0  0  0  0  0  0
    0.5795    0.1367    2.5670 H   0  0  0  0  0  0  0  0  0  0  0  0
    1.9811   -0.8352    2.0410 H   0  0  0  0  0  0  0  0  0  0  0  0
    2.1154    2.0532    3.0502 H   0  0  0  0  0  0  0  0  0  0  0  0
    2.5463    0.6203    4.0011 H   0  0  0  0  0  0  0  0  0  0  0  0
    3.4987    1.0632    2.5739 H   0  0  0  0  0  0  0  0  0  0  0  0
   -0.4692   -2.2212   -1.7268 H   0  0  0  0  0  0  0  0  0  0  0  0
   -0.1771   -0.4465   -1.6091 H   0  0  0  0  0  0  0  0  0  0  0  0
   -1.3858    1.6608    1.9422 H   0  0  0  0  0  0  0  0  0  0  0  0
   -2.9375    2.1852    2.6364 H   0  0  0  0  0  0  0  0  0  0  0  0
   -1.7043   -0.5920    3.0565 H   0  0  0  0  0  0  0  0  0  0  0  0
   -1.6768    0.7283    4.2425 H   0  0  0  0  0  0  0  0  0  0  0  0
   -3.2138   -0.0046    3.7617 H   0  0  0  0  0  0  0  0  0  0  0  0
   -5.2962   -0.1594    0.1834 H   0  0  0  0  0  0  0  0  0  0  0  0
   -5.4028   -0.9977   -1.3912 H   0  0  0  0  0  0  0  0  0  0  0  0
   -5.4266   -2.6413    0.4686 H   0  0  0  0  0  0  0  0  0  0  0  0
   -3.9382   -2.8247   -0.4708 H   0  0  0  0  0  0  0  0  0  0  0  0
   -3.9008   -1.9957    1.0909 H   0  0  0  0  0  0  0  0  0  0  0  0
  1  2  1  0  0  0  0
  2  3  1  0  0  0  0
  3  4  2  0  0  0  0
  4  5  2  0  0  0  0
  4  6  2  0  0  0  0
  6  7  1  0  0  0  0
  7  8  1  0  0  0  0
  4  9  1  0  0  0  0
  9 10  1  0  0  0  0
 10 11  1  0  0  0  0
 11 12  1  0  0  0  0
 12 13  2  0  0  0  0
 12 14  2  0  0  0  0
 14 15  1  0  0  0  0
 15 16  1  0  0  0  0
 12 17  2  0  0  0  0
 17 18  1  0  0  0  0
 18 19  1  0  0  0  0
  1 20  1  0  0  0  0
  1 21  1  0  0  0  0
  1 22  1  0  0  0  0
  2 23  1  0  0  0  0
  2 24  1  0  0  0  0
  7 25  1  0  0  0  0
  7 26  1  0  0  0  0
  8 27  1  0  0  0  0
  8 28  1  0  0  0  0
  8 29  1  0  0  0  0
 10 30  1  0  0  0  0
 10 31  1  0  0  0  0
 15 32  1  0  0  0  0
 15 33  1  0  0  0  0
 16 34  1  0  0  0  0
 16 35  1  0  0  0  0
 16 36  1  0  0  0  0
 18 37  1  0  0  0  0
 18 38  1  0  0  0  0
 19 39  1  0  0  0  0
 19 40  1  0  0  0  0
 19 41  1  0  0  0  0
M  END
