41
 xtb: 6.7.1 (edcfbbe)
C            1.61544134972831        2.63204703297279        2.01625453498844
C            2.30210960051703        1.29139331812990        2.05032279948056
O            1.44873443056342        0.35822998557664        1.29728110949159
P            1.97222576294951       -1.12054371239858        0.96320861744971
S            2.51137110199463       -2.24069497491264        2.46299562470681
O            3.08891112879495       -0.79575306117390       -0.15173369796499
C            4.17645125403591       -1.72759224603573       -0.48056655900849
C            3.70758251425534       -2.85888141624291       -1.36152182409742
S            0.29934736480466       -1.95629264191112       -0.00492348451328
C            0.24754137558440       -1.09412604214386       -1.63308437243997
S           -0.22578364090975        0.68043290663229       -1.67506088125201
P           -2.11537449059957        0.59657199192554       -0.72302294179283
S           -3.22626374831941       -0.94235547367344       -1.15746016478663
O           -2.70279262553013        2.05401746586732       -1.08245079816168
C           -3.29695437030568        2.32394584001636       -2.40026851405563
C           -3.97935375138953        3.66410980910920       -2.31473535650047
O           -1.73487123639564        0.82474224016854        0.81828044723008
C           -2.53149843993586        0.25572023520022        1.91588972896271
C           -1.76471530339931        0.50011848679090        3.18957151720957
H            0.62275767738562        2.57301775237971        2.47185228622464
H            2.21384349559969        3.35258122764847        2.58216701665044
H            1.51596978732951        2.99461852872959        0.98921475053468
H            2.40251793370979        0.90851444200488        3.07067190560468
H            3.28825031125381        1.32707227931762        1.57631027617747
H            4.90672300590158       -1.09618830654404       -0.99073433605062
H            4.61040116144586       -2.09061485566371        0.45588608169862
H            4.57583086760763       -3.46512685135068       -1.63984214049928
H            2.99513854608967       -3.50560584453886       -0.84141190839201
H            3.24540948926995       -2.48004737749029       -2.27763091445033
H           -0.47072360760501       -1.67197918140031       -2.22190170558833
H            1.22900220354755       -1.14772823580673       -2.11172989090039
H           -2.49325075378739        2.32257251450605       -3.14383569083763
H           -4.00508900002318        1.52226549826899       -2.63105236361062
H           -3.26604581666565        4.45352874324869       -2.06217236327509
H           -4.42282721774341        3.89748744463411       -3.28749746021802
H           -4.77647594038820        3.64793508445049       -1.56624485419489
H           -3.50737793901296        0.75092062783753        1.92316749898566
H           -2.66848868052332       -0.81207391924370        1.72407326829343
H           -2.33503998052881        0.08545790048923        4.02667190006592
H           -0.78827123241999        0.00694579752537        3.15861977785776
H           -1.62162759912967        1.56970608912517        3.36654643843280
