24
 xtb: 6.7.1 (edcfbbe)
C           -1.04390777678661       -2.93292844580553       -0.00010863991442
C           -1.01666071230013       -1.43158096491230       -0.00001947504069
C           -2.18738362070592       -0.70576869988332        0.00004679299212
C           -2.18785434908339        0.70429614357695        0.00005400649026
C           -1.01761909003650        1.43089563982582       -0.00001427889345
C            0.22120333434843        0.71801156231437       -0.00001468601678
C            0.22168233394410       -0.71786879693894       -0.00000612420207
C            1.46728490829618       -1.39487162203052        0.00003200425141
C            2.65689386421753       -0.70326436859736        0.00005676316907
C            2.65642384366095        0.70504781011182        0.00003355151337
C            1.46634925609658        1.39585530022467       -0.00000263893493
C           -1.04587857966412        2.93222223676123       -0.00005981175328
H           -2.07492319023834       -3.29375964811982       -0.00044798374804
H           -0.53799606465092       -3.34512735489690       -0.88066447472974
H           -0.53854023798389       -3.34524003539353        0.88071091868563
H           -3.13851656888708       -1.23148551960164        0.00006405134194
H           -3.13934046843661        1.22937425359010        0.00008385838751
H            1.48112573970059       -2.47931067590639        0.00006008147147
H            3.59884561368555       -1.24301414767155        0.00009991243440
H            3.59801384896983        1.24542926008915        0.00004417422784
H            1.47945328534309        2.48030454248665       -0.00001002421648
H           -0.54091680854953        3.34484004941404        0.88085208274551
H           -0.54012366188920        3.34480183185181       -0.88052685776422
H           -2.07714186033574        3.29234686317170       -0.00052678569371
