 xtb: 6.7.1 (edcfbbe)
          04092507313D

 38 37  0     0  0            999 V2000
    4.1278   -2.4742    1.3363 C   0  0  0  0  0  0  0  0  0  0  0  0
    2.7604   -1.8219    1.3798 C   0  0  0  0  0  0  0  0  0  0  0  0
    2.4510   -1.3445    0.0568 O   0  0  0  0  0  0  0  0  0  0  0  0
    1.5218   -0.4388   -0.0846 C   0  0  0  0  0  0  0  0  0  0  0  0
    0.9296    0.1063    0.8352 O   0  0  0  0  0  0  0  0  0  0  0  0
    1.2928   -0.0610   -1.5307 C   0  0  0  0  0  0  0  0  0  0  0  0
    0.2204    1.0146   -1.6107 C   0  0  0  0  0  0  0  0  0  0  0  0
    0.2580    1.5193   -2.5802 H   0  0  0  0  0  0  0  0  0  0  0  0
    0.3895    2.0656   -0.5201 C   0  0  0  0  0  0  0  0  0  0  0  0
   -0.5266    2.5309    0.1195 O   0  0  0  0  0  0  0  0  0  0  0  0
    1.6383    2.4757   -0.4481 O   0  0  0  0  0  0  0  0  0  0  0  0
    1.9473    3.4839    0.5359 C   0  0  0  0  0  0  0  0  0  0  0  0
    3.3686    3.9537    0.2985 C   0  0  0  0  0  0  0  0  0  0  0  0
   -1.4884    0.3808   -1.5619 S   0  0  0  0  0  0  0  0  0  0  0  0
   -1.6892   -0.9210    0.1046 P   0  0  0  0  0  0  0  0  0  0  0  0
   -0.5984   -2.5470    0.1686 S   0  0  0  0  0  0  0  0  0  0  0  0
   -1.7431   -0.1516    1.4803 O   0  0  0  0  0  0  0  0  0  0  0  0
   -2.6602    0.9227    1.7664 C   0  0  0  0  0  0  0  0  0  0  0  0
   -3.2438   -1.2613   -0.0880 O   0  0  0  0  0  0  0  0  0  0  0  0
   -3.7001   -2.0978   -1.1568 C   0  0  0  0  0  0  0  0  0  0  0  0
    4.3663   -2.8677    2.3186 H   0  0  0  0  0  0  0  0  0  0  0  0
    4.1225   -3.2860    0.6157 H   0  0  0  0  0  0  0  0  0  0  0  0
    4.8817   -1.7483    1.0465 H   0  0  0  0  0  0  0  0  0  0  0  0
    2.7244   -0.9752    2.0729 H   0  0  0  0  0  0  0  0  0  0  0  0
    1.9787   -2.5355    1.6607 H   0  0  0  0  0  0  0  0  0  0  0  0
    1.0113   -0.9515   -2.0954 H   0  0  0  0  0  0  0  0  0  0  0  0
    2.2349    0.3159   -1.9327 H   0  0  0  0  0  0  0  0  0  0  0  0
    1.2228    4.2977    0.4328 H   0  0  0  0  0  0  0  0  0  0  0  0
    1.8222    3.0335    1.5260 H   0  0  0  0  0  0  0  0  0  0  0  0
    3.6171    4.7166    1.0287 H   0  0  0  0  0  0  0  0  0  0  0  0
    4.0594    3.1223    0.4003 H   0  0  0  0  0  0  0  0  0  0  0  0
    3.4614    4.3690   -0.7004 H   0  0  0  0  0  0  0  0  0  0  0  0
   -2.6541    1.0139    2.8493 H   0  0  0  0  0  0  0  0  0  0  0  0
   -3.6551    0.6755    1.4021 H   0  0  0  0  0  0  0  0  0  0  0  0
   -2.2942    1.8387    1.3034 H   0  0  0  0  0  0  0  0  0  0  0  0
   -3.0556   -2.9738   -1.2459 H   0  0  0  0  0  0  0  0  0  0  0  0
   -3.7001   -1.5368   -2.0904 H   0  0  0  0  0  0  0  0  0  0  0  0
   -4.7097   -2.3951   -0.8845 H   0  0  0  0  0  0  0  0  0  0  0  0
  1  2  1  0  0  0  0
  2  3  1  0  0  0  0
  3  4  4  0  0  0  0
  4  5  2  0  0  0  0
  4  6  1  0  0  0  0
  6  7  1  0  0  0  0
  7  8  1  0  0  0  0
  7  9  1  0  0  0  0
  9 10  2  0  0  0  0
  9 11  1  0  0  0  0
 11 12  1  0  0  0  0
 12 13  1  0  0  0  0
  7 14  1  0  0  0  0
 14 15  1  0  0  0  0
 15 16  2  0  0  0  0
 15 17  2  0  0  0  0
 17 18  1  0  0  0  0
 15 19  1  0  0  0  0
 19 20  1  0  0  0  0
  1 21  1  0  0  0  0
  1 22  1  0  0  0  0
  1 23  1  0  0  0  0
  2 24  1  0  0  0  0
  2 25  1  0  0  0  0
  6 26  1  0  0  0  0
  6 27  1  0  0  0  0
 12 28  1  0  0  0  0
 12 29  1  0  0  0  0
 13 30  1  0  0  0  0
 13 31  1  0  0  0  0
 13 32  1  0  0  0  0
 18 33  1  0  0  0  0
 18 34  1  0  0  0  0
 18 35  1  0  0  0  0
 20 36  1  0  0  0  0
 20 37  1  0  0  0  0
 20 38  1  0  0  0  0
M  END
