 xtb: 6.7.1 (edcfbbe)
          04092514013D

 41 40  0     0  0            999 V2000
    1.3134   -2.8885    1.2509 C   0  0  0  0  0  0  0  0  0  0  0  0
    2.2744   -1.7601    1.5666 C   0  0  0  0  0  0  0  0  0  0  0  0
    1.8027   -0.5252    0.9916 O   0  0  0  0  0  0  0  0  0  0  0  0
    2.4749    0.1341   -0.3009 P   0  0  0  0  0  0  0  0  0  0  0  0
    3.1868   -1.1275   -1.6115 S   0  0  0  0  0  0  0  0  0  0  0  0
    3.6449    1.0794    0.2078 O   0  0  0  0  0  0  0  0  0  0  0  0
    3.4935    2.3334    0.9142 C   0  0  0  0  0  0  0  0  0  0  0  0
    2.7312    2.1888    2.2151 C   0  0  0  0  0  0  0  0  0  0  0  0
    0.9349    1.4510   -0.8876 S   0  0  0  0  0  0  0  0  0  0  0  0
    0.1460    0.3636   -2.1026 C   0  0  0  0  0  0  0  0  0  0  0  0
   -0.6097   -1.1134   -1.3739 S   0  0  0  0  0  0  0  0  0  0  0  0
   -2.0244   -0.1268   -0.1431 P   0  0  0  0  0  0  0  0  0  0  0  0
   -2.7875    1.5342   -0.8605 S   0  0  0  0  0  0  0  0  0  0  0  0
   -1.2400   -0.0115    1.2232 O   0  0  0  0  0  0  0  0  0  0  0  0
   -1.4652    1.0509    2.1705 C   0  0  0  0  0  0  0  0  0  0  0  0
   -2.7431    0.8308    2.9525 C   0  0  0  0  0  0  0  0  0  0  0  0
   -3.0474   -1.2939    0.1991 O   0  0  0  0  0  0  0  0  0  0  0  0
   -3.9920   -1.8003   -0.7672 C   0  0  0  0  0  0  0  0  0  0  0  0
   -5.3703   -1.2131   -0.5296 C   0  0  0  0  0  0  0  0  0  0  0  0
    1.3078   -3.0875    0.1811 H   0  0  0  0  0  0  0  0  0  0  0  0
    1.6253   -3.7838    1.7790 H   0  0  0  0  0  0  0  0  0  0  0  0
    0.3071   -2.6154    1.5594 H   0  0  0  0  0  0  0  0  0  0  0  0
    3.2754   -1.9798    1.1818 H   0  0  0  0  0  0  0  0  0  0  0  0
    2.3276   -1.5719    2.6408 H   0  0  0  0  0  0  0  0  0  0  0  0
    4.5242    2.6490    1.0847 H   0  0  0  0  0  0  0  0  0  0  0  0
    2.9944    3.0414    0.2477 H   0  0  0  0  0  0  0  0  0  0  0  0
    1.7034    1.8921    2.0156 H   0  0  0  0  0  0  0  0  0  0  0  0
    3.2017    1.4404    2.8481 H   0  0  0  0  0  0  0  0  0  0  0  0
    2.7292    3.1437    2.7314 H   0  0  0  0  0  0  0  0  0  0  0  0
    0.8908    0.0054   -2.8130 H   0  0  0  0  0  0  0  0  0  0  0  0
   -0.6180    0.9665   -2.5928 H   0  0  0  0  0  0  0  0  0  0  0  0
   -0.5864    1.0197    2.8165 H   0  0  0  0  0  0  0  0  0  0  0  0
   -1.4974    2.0030    1.6301 H   0  0  0  0  0  0  0  0  0  0  0  0
   -2.8367    1.6007    3.7122 H   0  0  0  0  0  0  0  0  0  0  0  0
   -3.5998    0.8859    2.2822 H   0  0  0  0  0  0  0  0  0  0  0  0
   -2.7304   -0.1468    3.4267 H   0  0  0  0  0  0  0  0  0  0  0  0
   -3.6383   -1.5717   -1.7769 H   0  0  0  0  0  0  0  0  0  0  0  0
   -3.9908   -2.8820   -0.6207 H   0  0  0  0  0  0  0  0  0  0  0  0
   -5.6876   -1.4068    0.4911 H   0  0  0  0  0  0  0  0  0  0  0  0
   -5.3578   -0.1385   -0.6982 H   0  0  0  0  0  0  0  0  0  0  0  0
   -6.0754   -1.6708   -1.2163 H   0  0  0  0  0  0  0  0  0  0  0  0
  1  2  1  0  0  0  0
  2  3  1  0  0  0  0
  3  4  1  0  0  0  0
  4  5  2  0  0  0  0
  4  6  2  0  0  0  0
  6  7  1  0  0  0  0
  7  8  1  0  0  0  0
  4  9  1  0  0  0  0
  9 10  1  0  0  0  0
 10 11  1  0  0  0  0
 11 12  1  0  0  0  0
 12 13  2  0  0  0  0
 12 14  2  0  0  0  0
 14 15  1  0  0  0  0
 15 16  1  0  0  0  0
 12 17  2  0  0  0  0
 17 18  1  0  0  0  0
 18 19  1  0  0  0  0
  1 20  1  0  0  0  0
  1 21  1  0  0  0  0
  1 22  1  0  0  0  0
  2 23  1  0  0  0  0
  2 24  1  0  0  0  0
  7 25  1  0  0  0  0
  7 26  1  0  0  0  0
  8 27  1  0  0  0  0
  8 28  1  0  0  0  0
  8 29  1  0  0  0  0
 10 30  1  0  0  0  0
 10 31  1  0  0  0  0
 15 32  1  0  0  0  0
 15 33  1  0  0  0  0
 16 34  1  0  0  0  0
 16 35  1  0  0  0  0
 16 36  1  0  0  0  0
 18 37  1  0  0  0  0
 18 38  1  0  0  0  0
 19 39  1  0  0  0  0
 19 40  1  0  0  0  0
 19 41  1  0  0  0  0
M  END
