 xtb: 6.7.1 (edcfbbe)
          04092505213D

 41 40  0     0  0            999 V2000
    2.3105    2.9847   -1.1856 C   0  0  0  0  0  0  0  0  0  0  0  0
    1.6627    1.6433   -1.4589 C   0  0  0  0  0  0  0  0  0  0  0  0
    1.3955    0.9533   -0.2149 O   0  0  0  0  0  0  0  0  0  0  0  0
    2.3478   -0.2286    0.2521 P   0  0  0  0  0  0  0  0  0  0  0  0
    4.2757    0.0797    0.1146 S   0  0  0  0  0  0  0  0  0  0  0  0
    1.8259   -1.4303   -0.6642 O   0  0  0  0  0  0  0  0  0  0  0  0
    2.6133   -2.6101   -0.8868 C   0  0  0  0  0  0  0  0  0  0  0  0
    2.6700   -3.4901    0.3460 C   0  0  0  0  0  0  0  0  0  0  0  0
    1.5633   -0.5706    2.1736 S   0  0  0  0  0  0  0  0  0  0  0  0
   -0.1681   -0.9084    1.7432 C   0  0  0  0  0  0  0  0  0  0  0  0
   -1.1803    0.6084    1.6792 S   0  0  0  0  0  0  0  0  0  0  0  0
   -2.2287    0.1627   -0.0929 P   0  0  0  0  0  0  0  0  0  0  0  0
   -1.2428   -0.5414   -1.6432 S   0  0  0  0  0  0  0  0  0  0  0  0
   -3.0922    1.4641   -0.3836 O   0  0  0  0  0  0  0  0  0  0  0  0
   -2.6015    2.5571   -1.1771 C   0  0  0  0  0  0  0  0  0  0  0  0
   -1.6323    3.4239   -0.3987 C   0  0  0  0  0  0  0  0  0  0  0  0
   -3.2971   -0.8376    0.5142 O   0  0  0  0  0  0  0  0  0  0  0  0
   -4.0856   -1.7242   -0.3066 C   0  0  0  0  0  0  0  0  0  0  0  0
   -5.1029   -0.9703   -1.1367 C   0  0  0  0  0  0  0  0  0  0  0  0
    2.4322    3.5187   -2.1224 H   0  0  0  0  0  0  0  0  0  0  0  0
    1.6934    3.5717   -0.5110 H   0  0  0  0  0  0  0  0  0  0  0  0
    3.2872    2.8380   -0.7291 H   0  0  0  0  0  0  0  0  0  0  0  0
    2.3033    1.0164   -2.0854 H   0  0  0  0  0  0  0  0  0  0  0  0
    0.6896    1.7472   -1.9433 H   0  0  0  0  0  0  0  0  0  0  0  0
    2.1143   -3.1066   -1.7205 H   0  0  0  0  0  0  0  0  0  0  0  0
    3.6209   -2.3016   -1.1843 H   0  0  0  0  0  0  0  0  0  0  0  0
    1.6676   -3.7549    0.6729 H   0  0  0  0  0  0  0  0  0  0  0  0
    3.2218   -4.3953    0.1139 H   0  0  0  0  0  0  0  0  0  0  0  0
    3.1781   -2.9630    1.1533 H   0  0  0  0  0  0  0  0  0  0  0  0
   -0.5520   -1.5510    2.5305 H   0  0  0  0  0  0  0  0  0  0  0  0
   -0.2049   -1.3942    0.7669 H   0  0  0  0  0  0  0  0  0  0  0  0
   -2.1284    2.1488   -2.0772 H   0  0  0  0  0  0  0  0  0  0  0  0
   -3.4999    3.1111   -1.4536 H   0  0  0  0  0  0  0  0  0  0  0  0
   -0.7456    2.8509   -0.1325 H   0  0  0  0  0  0  0  0  0  0  0  0
   -1.3386    4.2729   -1.0080 H   0  0  0  0  0  0  0  0  0  0  0  0
   -2.0992    3.7794    0.5161 H   0  0  0  0  0  0  0  0  0  0  0  0
   -3.4084   -2.2943   -0.9510 H   0  0  0  0  0  0  0  0  0  0  0  0
   -4.5633   -2.3894    0.4138 H   0  0  0  0  0  0  0  0  0  0  0  0
   -5.7487   -1.6790   -1.6458 H   0  0  0  0  0  0  0  0  0  0  0  0
   -5.7025   -0.3255   -0.4998 H   0  0  0  0  0  0  0  0  0  0  0  0
   -4.5950   -0.3573   -1.8798 H   0  0  0  0  0  0  0  0  0  0  0  0
  1  2  1  0  0  0  0
  2  3  1  0  0  0  0
  3  4  2  0  0  0  0
  4  5  2  0  0  0  0
  4  6  2  0  0  0  0
  6  7  1  0  0  0  0
  7  8  1  0  0  0  0
  4  9  1  0  0  0  0
  9 10  1  0  0  0  0
 10 11  1  0  0  0  0
 11 12  1  0  0  0  0
 12 13  2  0  0  0  0
 12 14  2  0  0  0  0
 14 15  1  0  0  0  0
 15 16  1  0  0  0  0
 12 17  2  0  0  0  0
 17 18  1  0  0  0  0
 18 19  1  0  0  0  0
  1 20  1  0  0  0  0
  1 21  1  0  0  0  0
  1 22  1  0  0  0  0
  2 23  1  0  0  0  0
  2 24  1  0  0  0  0
  7 25  1  0  0  0  0
  7 26  1  0  0  0  0
  8 27  1  0  0  0  0
  8 28  1  0  0  0  0
  8 29  1  0  0  0  0
 10 30  1  0  0  0  0
 10 31  1  0  0  0  0
 15 32  1  0  0  0  0
 15 33  1  0  0  0  0
 16 34  1  0  0  0  0
 16 35  1  0  0  0  0
 16 36  1  0  0  0  0
 18 37  1  0  0  0  0
 18 38  1  0  0  0  0
 19 39  1  0  0  0  0
 19 40  1  0  0  0  0
 19 41  1  0  0  0  0
M  END
