 xtb: 6.7.1 (edcfbbe)
          04032520443D

 10  9  0     0  0            999 V2000
    1.8654   -0.0242   -0.2303 C   0  0  0  0  0  0  0  0  0  0  0  0
    0.7019    0.3077    0.2962 C   0  0  0  0  0  0  0  0  0  0  0  0
   -0.5411   -0.5263    0.1890 C   0  0  0  0  0  0  0  0  0  0  0  0
   -1.6849    0.2312   -0.1640 O   0  0  0  0  0  0  0  0  0  0  0  0
    2.7368    0.5971   -0.1203 H   0  0  0  0  0  0  0  0  0  0  0  0
    1.9947   -0.9412   -0.7811 H   0  0  0  0  0  0  0  0  0  0  0  0
    0.5767    1.2306    0.8461 H   0  0  0  0  0  0  0  0  0  0  0  0
   -0.7788   -0.9541    1.1690 H   0  0  0  0  0  0  0  0  0  0  0  0
   -0.3914   -1.3501   -0.5211 H   0  0  0  0  0  0  0  0  0  0  0  0
   -1.5369    0.6408   -1.0275 H   0  0  0  0  0  0  0  0  0  0  0  0
  1  2  2  0  0  0  0
  2  3  1  0  0  0  0
  3  4  1  0  0  0  0
  1  5  1  0  0  0  0
  1  6  1  0  0  0  0
  2  7  1  0  0  0  0
  3  8  1  0  0  0  0
  3  9  1  0  0  0  0
  4 10  1  0  0  0  0
M  END
