 xtb: 6.7.1 (edcfbbe)
          04092513593D

 41 40  0     0  0            999 V2000
    4.1711   -0.4180   -2.2709 C   0  0  0  0  0  0  0  0  0  0  0  0
    4.4007   -0.5907   -0.7826 C   0  0  0  0  0  0  0  0  0  0  0  0
    3.1657   -0.6934   -0.0565 O   0  0  0  0  0  0  0  0  0  0  0  0
    2.2430    0.5757    0.2457 P   0  0  0  0  0  0  0  0  0  0  0  0
    3.2054    2.2586    0.5201 S   0  0  0  0  0  0  0  0  0  0  0  0
    1.3694    0.0570    1.4623 O   0  0  0  0  0  0  0  0  0  0  0  0
    1.7833    0.2534    2.8321 C   0  0  0  0  0  0  0  0  0  0  0  0
    2.9810   -0.5983    3.1967 C   0  0  0  0  0  0  0  0  0  0  0  0
    0.7658    0.6013   -1.2714 S   0  0  0  0  0  0  0  0  0  0  0  0
    0.2070   -1.1302   -1.2122 C   0  0  0  0  0  0  0  0  0  0  0  0
   -0.9527   -1.4957    0.1261 S   0  0  0  0  0  0  0  0  0  0  0  0
   -2.5150   -0.1898   -0.5002 P   0  0  0  0  0  0  0  0  0  0  0  0
   -2.7670   -0.0078   -2.4300 S   0  0  0  0  0  0  0  0  0  0  0  0
   -2.2203    1.2228    0.1421 O   0  0  0  0  0  0  0  0  0  0  0  0
   -2.0070    1.4036    1.5633 C   0  0  0  0  0  0  0  0  0  0  0  0
   -1.1465    2.6342    1.7615 C   0  0  0  0  0  0  0  0  0  0  0  0
   -3.7484   -0.6638    0.3864 O   0  0  0  0  0  0  0  0  0  0  0  0
   -4.2338   -2.0133    0.5261 C   0  0  0  0  0  0  0  0  0  0  0  0
   -4.6328   -2.6402   -0.7934 C   0  0  0  0  0  0  0  0  0  0  0  0
    3.5465   -1.2192   -2.6576 H   0  0  0  0  0  0  0  0  0  0  0  0
    3.6808    0.5355   -2.4655 H   0  0  0  0  0  0  0  0  0  0  0  0
    5.1271   -0.4324   -2.7849 H   0  0  0  0  0  0  0  0  0  0  0  0
    4.9713    0.2544   -0.3835 H   0  0  0  0  0  0  0  0  0  0  0  0
    4.9186   -1.5253   -0.5615 H   0  0  0  0  0  0  0  0  0  0  0  0
    2.0076    1.3153    2.9755 H   0  0  0  0  0  0  0  0  0  0  0  0
    0.9022   -0.0240    3.4121 H   0  0  0  0  0  0  0  0  0  0  0  0
    2.7900   -1.6407    2.9559 H   0  0  0  0  0  0  0  0  0  0  0  0
    3.8598   -0.2623    2.6485 H   0  0  0  0  0  0  0  0  0  0  0  0
    3.1741   -0.5032    4.2609 H   0  0  0  0  0  0  0  0  0  0  0  0
    1.0595   -1.7898   -1.0732 H   0  0  0  0  0  0  0  0  0  0  0  0
   -0.2884   -1.3009   -2.1681 H   0  0  0  0  0  0  0  0  0  0  0  0
   -2.9857    1.5192    2.0325 H   0  0  0  0  0  0  0  0  0  0  0  0
   -1.5179    0.5081    1.9603 H   0  0  0  0  0  0  0  0  0  0  0  0
   -1.6357    3.5056    1.3362 H   0  0  0  0  0  0  0  0  0  0  0  0
   -0.9855    2.7915    2.8233 H   0  0  0  0  0  0  0  0  0  0  0  0
   -0.1835    2.5089    1.2689 H   0  0  0  0  0  0  0  0  0  0  0  0
   -3.4571   -2.6056    1.0174 H   0  0  0  0  0  0  0  0  0  0  0  0
   -5.0938   -1.9050    1.1897 H   0  0  0  0  0  0  0  0  0  0  0  0
   -5.0612   -3.6201   -0.6074 H   0  0  0  0  0  0  0  0  0  0  0  0
   -5.3645   -2.0192   -1.3044 H   0  0  0  0  0  0  0  0  0  0  0  0
   -3.7636   -2.7478   -1.4399 H   0  0  0  0  0  0  0  0  0  0  0  0
  1  2  1  0  0  0  0
  2  3  1  0  0  0  0
  3  4  2  0  0  0  0
  4  5  2  0  0  0  0
  4  6  2  0  0  0  0
  6  7  1  0  0  0  0
  7  8  1  0  0  0  0
  4  9  1  0  0  0  0
  9 10  1  0  0  0  0
 10 11  1  0  0  0  0
 11 12  1  0  0  0  0
 12 13  2  0  0  0  0
 12 14  2  0  0  0  0
 14 15  1  0  0  0  0
 15 16  1  0  0  0  0
 12 17  2  0  0  0  0
 17 18  1  0  0  0  0
 18 19  1  0  0  0  0
  1 20  1  0  0  0  0
  1 21  1  0  0  0  0
  1 22  1  0  0  0  0
  2 23  1  0  0  0  0
  2 24  1  0  0  0  0
  7 25  1  0  0  0  0
  7 26  1  0  0  0  0
  8 27  1  0  0  0  0
  8 28  1  0  0  0  0
  8 29  1  0  0  0  0
 10 30  1  0  0  0  0
 10 31  1  0  0  0  0
 15 32  1  0  0  0  0
 15 33  1  0  0  0  0
 16 34  1  0  0  0  0
 16 35  1  0  0  0  0
 16 36  1  0  0  0  0
 18 37  1  0  0  0  0
 18 38  1  0  0  0  0
 19 39  1  0  0  0  0
 19 40  1  0  0  0  0
 19 41  1  0  0  0  0
M  END
