 xtb: 6.7.1 (edcfbbe)
          04092505213D

 41 40  0     0  0            999 V2000
    4.1611   -0.6565   -1.8160 C   0  0  0  0  0  0  0  0  0  0  0  0
    2.8312    0.0494   -1.9628 C   0  0  0  0  0  0  0  0  0  0  0  0
    2.4003    0.7089   -0.7477 O   0  0  0  0  0  0  0  0  0  0  0  0
    2.2616    0.0695    0.6874 P   0  0  0  0  0  0  0  0  0  0  0  0
    1.2223    1.2236    1.8766 S   0  0  0  0  0  0  0  0  0  0  0  0
    3.7710   -0.1461    1.1322 O   0  0  0  0  0  0  0  0  0  0  0  0
    4.1570   -0.3160    2.5073 C   0  0  0  0  0  0  0  0  0  0  0  0
    3.6377   -1.6114    3.0969 C   0  0  0  0  0  0  0  0  0  0  0  0
    1.5075   -1.9055    0.4101 S   0  0  0  0  0  0  0  0  0  0  0  0
   -0.2329   -1.4682    0.2996 C   0  0  0  0  0  0  0  0  0  0  0  0
   -0.6041   -0.7082   -1.3344 S   0  0  0  0  0  0  0  0  0  0  0  0
   -2.2740    0.4529   -0.8135 P   0  0  0  0  0  0  0  0  0  0  0  0
   -3.1268    1.3464   -2.3345 S   0  0  0  0  0  0  0  0  0  0  0  0
   -1.6077    1.3370    0.3186 O   0  0  0  0  0  0  0  0  0  0  0  0
   -2.3276    2.0049    1.3757 C   0  0  0  0  0  0  0  0  0  0  0  0
   -3.2209    3.1076    0.8495 C   0  0  0  0  0  0  0  0  0  0  0  0
   -3.2445   -0.4825    0.0448 O   0  0  0  0  0  0  0  0  0  0  0  0
   -4.3223   -1.2093   -0.5690 C   0  0  0  0  0  0  0  0  0  0  0  0
   -3.8196   -2.4078   -1.3480 C   0  0  0  0  0  0  0  0  0  0  0  0
    4.9146    0.0324   -1.4433 H   0  0  0  0  0  0  0  0  0  0  0  0
    4.0724   -1.4918   -1.1246 H   0  0  0  0  0  0  0  0  0  0  0  0
    4.4664   -1.0327   -2.7876 H   0  0  0  0  0  0  0  0  0  0  0  0
    2.0445   -0.6485   -2.2662 H   0  0  0  0  0  0  0  0  0  0  0  0
    2.8843    0.8690   -2.6813 H   0  0  0  0  0  0  0  0  0  0  0  0
    5.2472   -0.2970    2.4733 H   0  0  0  0  0  0  0  0  0  0  0  0
    3.7882    0.5417    3.0787 H   0  0  0  0  0  0  0  0  0  0  0  0
    4.0712   -1.7539    4.0816 H   0  0  0  0  0  0  0  0  0  0  0  0
    2.5541   -1.5697    3.1920 H   0  0  0  0  0  0  0  0  0  0  0  0
    3.9029   -2.4513    2.4601 H   0  0  0  0  0  0  0  0  0  0  0  0
   -0.4733   -0.7468    1.0818 H   0  0  0  0  0  0  0  0  0  0  0  0
   -0.7985   -2.3898    0.4021 H   0  0  0  0  0  0  0  0  0  0  0  0
   -2.9061    1.2581    1.9242 H   0  0  0  0  0  0  0  0  0  0  0  0
   -1.5297    2.3946    2.0122 H   0  0  0  0  0  0  0  0  0  0  0  0
   -3.6812    3.6256    1.6847 H   0  0  0  0  0  0  0  0  0  0  0  0
   -2.6397    3.8153    0.2629 H   0  0  0  0  0  0  0  0  0  0  0  0
   -4.0000    2.6896    0.2131 H   0  0  0  0  0  0  0  0  0  0  0  0
   -4.9551   -1.5058    0.2686 H   0  0  0  0  0  0  0  0  0  0  0  0
   -4.8680   -0.5265   -1.2281 H   0  0  0  0  0  0  0  0  0  0  0  0
   -3.1882   -2.0754   -2.1715 H   0  0  0  0  0  0  0  0  0  0  0  0
   -3.2455   -3.0698   -0.7052 H   0  0  0  0  0  0  0  0  0  0  0  0
   -4.6670   -2.9510   -1.7537 H   0  0  0  0  0  0  0  0  0  0  0  0
  1  2  1  0  0  0  0
  2  3  1  0  0  0  0
  3  4  2  0  0  0  0
  4  5  2  0  0  0  0
  4  6  2  0  0  0  0
  6  7  1  0  0  0  0
  7  8  1  0  0  0  0
  4  9  1  0  0  0  0
  9 10  1  0  0  0  0
 10 11  1  0  0  0  0
 11 12  1  0  0  0  0
 12 13  2  0  0  0  0
 12 14  2  0  0  0  0
 14 15  1  0  0  0  0
 15 16  1  0  0  0  0
 12 17  2  0  0  0  0
 17 18  1  0  0  0  0
 18 19  1  0  0  0  0
  1 20  1  0  0  0  0
  1 21  1  0  0  0  0
  1 22  1  0  0  0  0
  2 23  1  0  0  0  0
  2 24  1  0  0  0  0
  7 25  1  0  0  0  0
  7 26  1  0  0  0  0
  8 27  1  0  0  0  0
  8 28  1  0  0  0  0
  8 29  1  0  0  0  0
 10 30  1  0  0  0  0
 10 31  1  0  0  0  0
 15 32  1  0  0  0  0
 15 33  1  0  0  0  0
 16 34  1  0  0  0  0
 16 35  1  0  0  0  0
 16 36  1  0  0  0  0
 18 37  1  0  0  0  0
 18 38  1  0  0  0  0
 19 39  1  0  0  0  0
 19 40  1  0  0  0  0
 19 41  1  0  0  0  0
M  END
