 xtb: 6.7.1 (edcfbbe)
          04092505213D

 41 40  0     0  0            999 V2000
    2.3212   -2.8875    1.8953 C   0  0  0  0  0  0  0  0  0  0  0  0
    1.3856   -2.1188    0.9837 C   0  0  0  0  0  0  0  0  0  0  0  0
    1.7448   -0.7260    0.9986 O   0  0  0  0  0  0  0  0  0  0  0  0
    2.3332    0.0807   -0.2466 P   0  0  0  0  0  0  0  0  0  0  0  0
    3.0279   -0.9990   -1.7146 S   0  0  0  0  0  0  0  0  0  0  0  0
    3.4316    0.9965    0.4131 O   0  0  0  0  0  0  0  0  0  0  0  0
    3.1610    1.8758    1.5366 C   0  0  0  0  0  0  0  0  0  0  0  0
    4.4150    2.6844    1.7927 C   0  0  0  0  0  0  0  0  0  0  0  0
    0.8140    1.5015   -0.7476 S   0  0  0  0  0  0  0  0  0  0  0  0
    0.0409    0.5468   -2.0738 C   0  0  0  0  0  0  0  0  0  0  0  0
   -0.7031   -0.9986   -1.4885 S   0  0  0  0  0  0  0  0  0  0  0  0
   -2.0693   -0.1098   -0.1288 P   0  0  0  0  0  0  0  0  0  0  0  0
   -2.8809    1.5760   -0.7234 S   0  0  0  0  0  0  0  0  0  0  0  0
   -1.2240   -0.0495    1.2068 O   0  0  0  0  0  0  0  0  0  0  0  0
   -1.3954    0.9993    2.1802 C   0  0  0  0  0  0  0  0  0  0  0  0
   -2.6798    0.8113    2.9591 C   0  0  0  0  0  0  0  0  0  0  0  0
   -3.0378   -1.3193    0.2134 O   0  0  0  0  0  0  0  0  0  0  0  0
   -3.9725   -1.8725   -0.7350 C   0  0  0  0  0  0  0  0  0  0  0  0
   -5.3136   -1.1687   -0.6578 C   0  0  0  0  0  0  0  0  0  0  0  0
    2.2848   -2.4820    2.9023 H   0  0  0  0  0  0  0  0  0  0  0  0
    2.0197   -3.9297    1.9154 H   0  0  0  0  0  0  0  0  0  0  0  0
    3.3403   -2.8183    1.5210 H   0  0  0  0  0  0  0  0  0  0  0  0
    0.3499   -2.1685    1.3281 H   0  0  0  0  0  0  0  0  0  0  0  0
    1.4469   -2.4963   -0.0423 H   0  0  0  0  0  0  0  0  0  0  0  0
    2.3154    2.5178    1.2739 H   0  0  0  0  0  0  0  0  0  0  0  0
    2.8955    1.2573    2.3962 H   0  0  0  0  0  0  0  0  0  0  0  0
    5.2459    2.0218    2.0169 H   0  0  0  0  0  0  0  0  0  0  0  0
    4.6649    3.2726    0.9145 H   0  0  0  0  0  0  0  0  0  0  0  0
    4.2450    3.3483    2.6342 H   0  0  0  0  0  0  0  0  0  0  0  0
    0.7908    0.2680   -2.8134 H   0  0  0  0  0  0  0  0  0  0  0  0
   -0.7299    1.1861   -2.5032 H   0  0  0  0  0  0  0  0  0  0  0  0
   -0.5130    0.9175    2.8165 H   0  0  0  0  0  0  0  0  0  0  0  0
   -1.3899    1.9639    1.6618 H   0  0  0  0  0  0  0  0  0  0  0  0
   -2.6986   -0.1709    3.4235 H   0  0  0  0  0  0  0  0  0  0  0  0
   -2.7556    1.5777    3.7239 H   0  0  0  0  0  0  0  0  0  0  0  0
   -3.5303    0.8973    2.2836 H   0  0  0  0  0  0  0  0  0  0  0  0
   -3.5481   -1.8044   -1.7410 H   0  0  0  0  0  0  0  0  0  0  0  0
   -4.0579   -2.9224   -0.4483 H   0  0  0  0  0  0  0  0  0  0  0  0
   -6.0069   -1.6454   -1.3433 H   0  0  0  0  0  0  0  0  0  0  0  0
   -5.7094   -1.2282    0.3522 H   0  0  0  0  0  0  0  0  0  0  0  0
   -5.2084   -0.1214   -0.9321 H   0  0  0  0  0  0  0  0  0  0  0  0
  1  2  1  0  0  0  0
  2  3  1  0  0  0  0
  3  4  2  0  0  0  0
  4  5  2  0  0  0  0
  4  6  2  0  0  0  0
  6  7  1  0  0  0  0
  7  8  1  0  0  0  0
  4  9  1  0  0  0  0
  9 10  1  0  0  0  0
 10 11  1  0  0  0  0
 11 12  1  0  0  0  0
 12 13  2  0  0  0  0
 12 14  2  0  0  0  0
 14 15  1  0  0  0  0
 15 16  1  0  0  0  0
 12 17  2  0  0  0  0
 17 18  1  0  0  0  0
 18 19  1  0  0  0  0
  1 20  1  0  0  0  0
  1 21  1  0  0  0  0
  1 22  1  0  0  0  0
  2 23  1  0  0  0  0
  2 24  1  0  0  0  0
  7 25  1  0  0  0  0
  7 26  1  0  0  0  0
  8 27  1  0  0  0  0
  8 28  1  0  0  0  0
  8 29  1  0  0  0  0
 10 30  1  0  0  0  0
 10 31  1  0  0  0  0
 15 32  1  0  0  0  0
 15 33  1  0  0  0  0
 16 34  1  0  0  0  0
 16 35  1  0  0  0  0
 16 36  1  0  0  0  0
 18 37  1  0  0  0  0
 18 38  1  0  0  0  0
 19 39  1  0  0  0  0
 19 40  1  0  0  0  0
 19 41  1  0  0  0  0
M  END
