 xtb: 6.7.1 (edcfbbe)
          04092505213D

 41 40  0     0  0            999 V2000
    3.7524   -2.4933    1.0530 C   0  0  0  0  0  0  0  0  0  0  0  0
    2.4017   -2.3178    0.3901 C   0  0  0  0  0  0  0  0  0  0  0  0
    1.9187   -0.9679    0.5443 O   0  0  0  0  0  0  0  0  0  0  0  0
    2.5161    0.2426   -0.3156 P   0  0  0  0  0  0  0  0  0  0  0  0
    3.2986   -0.2580   -2.0337 S   0  0  0  0  0  0  0  0  0  0  0  0
    3.5614    0.9910    0.6081 O   0  0  0  0  0  0  0  0  0  0  0  0
    3.3046    1.3458    1.9897 C   0  0  0  0  0  0  0  0  0  0  0  0
    2.8599    2.7897    2.1058 C   0  0  0  0  0  0  0  0  0  0  0  0
    0.8192    1.5056   -0.3883 S   0  0  0  0  0  0  0  0  0  0  0  0
   -0.0330    0.5895   -1.6978 C   0  0  0  0  0  0  0  0  0  0  0  0
   -0.9052   -0.8646   -1.0833 S   0  0  0  0  0  0  0  0  0  0  0  0
   -2.4370    0.2169   -0.0512 P   0  0  0  0  0  0  0  0  0  0  0  0
   -3.0411    1.8094   -1.0197 S   0  0  0  0  0  0  0  0  0  0  0  0
   -1.9284    0.5735    1.3933 O   0  0  0  0  0  0  0  0  0  0  0  0
   -1.8938   -0.3169    2.5377 C   0  0  0  0  0  0  0  0  0  0  0  0
   -0.9944   -1.5138    2.3159 C   0  0  0  0  0  0  0  0  0  0  0  0
   -3.5411   -0.8880    0.2246 O   0  0  0  0  0  0  0  0  0  0  0  0
   -4.3685   -1.3949   -0.8438 C   0  0  0  0  0  0  0  0  0  0  0  0
   -5.5821   -2.0525   -0.2191 C   0  0  0  0  0  0  0  0  0  0  0  0
    3.6958   -2.2406    2.1085 H   0  0  0  0  0  0  0  0  0  0  0  0
    4.0738   -3.5245    0.9469 H   0  0  0  0  0  0  0  0  0  0  0  0
    4.4836   -1.8444    0.5709 H   0  0  0  0  0  0  0  0  0  0  0  0
    1.6316   -2.9342    0.8553 H   0  0  0  0  0  0  0  0  0  0  0  0
    2.4622   -2.5454   -0.6784 H   0  0  0  0  0  0  0  0  0  0  0  0
    2.5543    0.6654    2.3988 H   0  0  0  0  0  0  0  0  0  0  0  0
    4.2622    1.1876    2.4889 H   0  0  0  0  0  0  0  0  0  0  0  0
    3.5909    3.4430    1.6375 H   0  0  0  0  0  0  0  0  0  0  0  0
    1.8986    2.9366    1.6166 H   0  0  0  0  0  0  0  0  0  0  0  0
    2.7673    3.0498    3.1557 H   0  0  0  0  0  0  0  0  0  0  0  0
    0.6975    0.2492   -2.4330 H   0  0  0  0  0  0  0  0  0  0  0  0
   -0.7555    1.2757   -2.1417 H   0  0  0  0  0  0  0  0  0  0  0  0
   -1.5208    0.3265    3.3363 H   0  0  0  0  0  0  0  0  0  0  0  0
   -2.9163   -0.6293    2.7560 H   0  0  0  0  0  0  0  0  0  0  0  0
   -0.9237   -2.0800    3.2395 H   0  0  0  0  0  0  0  0  0  0  0  0
   -1.4021   -2.1535    1.5354 H   0  0  0  0  0  0  0  0  0  0  0  0
   -0.0012   -1.1881    2.0168 H   0  0  0  0  0  0  0  0  0  0  0  0
   -4.6529   -0.5588   -1.4912 H   0  0  0  0  0  0  0  0  0  0  0  0
   -3.7765   -2.1095   -1.4214 H   0  0  0  0  0  0  0  0  0  0  0  0
   -5.2725   -2.8597    0.4381 H   0  0  0  0  0  0  0  0  0  0  0  0
   -6.1468   -1.3242    0.3563 H   0  0  0  0  0  0  0  0  0  0  0  0
   -6.2132   -2.4522   -1.0060 H   0  0  0  0  0  0  0  0  0  0  0  0
  1  2  1  0  0  0  0
  2  3  1  0  0  0  0
  3  4  1  0  0  0  0
  4  5  2  0  0  0  0
  4  6  2  0  0  0  0
  6  7  1  0  0  0  0
  7  8  1  0  0  0  0
  4  9  1  0  0  0  0
  9 10  1  0  0  0  0
 10 11  1  0  0  0  0
 11 12  1  0  0  0  0
 12 13  2  0  0  0  0
 12 14  2  0  0  0  0
 14 15  1  0  0  0  0
 15 16  1  0  0  0  0
 12 17  2  0  0  0  0
 17 18  1  0  0  0  0
 18 19  1  0  0  0  0
  1 20  1  0  0  0  0
  1 21  1  0  0  0  0
  1 22  1  0  0  0  0
  2 23  1  0  0  0  0
  2 24  1  0  0  0  0
  7 25  1  0  0  0  0
  7 26  1  0  0  0  0
  8 27  1  0  0  0  0
  8 28  1  0  0  0  0
  8 29  1  0  0  0  0
 10 30  1  0  0  0  0
 10 31  1  0  0  0  0
 15 32  1  0  0  0  0
 15 33  1  0  0  0  0
 16 34  1  0  0  0  0
 16 35  1  0  0  0  0
 16 36  1  0  0  0  0
 18 37  1  0  0  0  0
 18 38  1  0  0  0  0
 19 39  1  0  0  0  0
 19 40  1  0  0  0  0
 19 41  1  0  0  0  0
M  END
