 xtb: 6.7.1 (edcfbbe)
          04032519423D

 20 20  0     0  0            999 V2000
    0.8455    1.2820   -1.0093 C   0  0  0  0  0  0  0  0  0  0  0  0
    1.4425    0.3106    0.0132 C   0  0  0  0  0  0  0  0  0  0  0  0
    2.4583    0.0556   -0.3044 H   0  0  0  0  0  0  0  0  0  0  0  0
    0.6253   -1.0000    0.0428 C   0  0  0  0  0  0  0  0  0  0  0  0
    0.6025   -1.3546    1.0846 H   0  0  0  0  0  0  0  0  0  0  0  0
   -0.8248   -0.7729   -0.4373 C   0  0  0  0  0  0  0  0  0  0  0  0
   -0.8556   -0.8935   -1.5254 H   0  0  0  0  0  0  0  0  0  0  0  0
   -1.2846    0.6520   -0.0993 C   0  0  0  0  0  0  0  0  0  0  0  0
   -2.3115    0.7995   -0.4643 H   0  0  0  0  0  0  0  0  0  0  0  0
   -0.5103    1.6325   -0.7303 O   0  0  0  0  0  0  0  0  0  0  0  0
   -1.2474    0.7903    1.2993 O   0  0  0  0  0  0  0  0  0  0  0  0
   -1.7123   -1.7259    0.0842 O   0  0  0  0  0  0  0  0  0  0  0  0
    1.2867   -1.9362   -0.7742 O   0  0  0  0  0  0  0  0  0  0  0  0
    1.5706    0.8857    1.2865 O   0  0  0  0  0  0  0  0  0  0  0  0
    0.9086    0.8298   -2.0054 H   0  0  0  0  0  0  0  0  0  0  0  0
    1.3936    2.2251   -0.9984 H   0  0  0  0  0  0  0  0  0  0  0  0
   -1.6931    1.6100    1.5614 H   0  0  0  0  0  0  0  0  0  0  0  0
   -1.8340   -1.5586    1.0319 H   0  0  0  0  0  0  0  0  0  0  0  0
    0.8009   -2.7740   -0.7577 H   0  0  0  0  0  0  0  0  0  0  0  0
    0.6750    1.0554    1.6334 H   0  0  0  0  0  0  0  0  0  0  0  0
  1  2  1  0  0  0  0
  2  3  1  0  0  0  0
  2  4  1  0  0  0  0
  4  5  1  0  0  0  0
  4  6  1  0  0  0  0
  6  7  1  0  0  0  0
  6  8  1  0  0  0  0
  8  9  1  0  0  0  0
  1 10  1  0  0  0  0
  8 10  1  0  0  0  0
  8 11  1  0  0  0  0
  6 12  1  0  0  0  0
  4 13  1  0  0  0  0
  2 14  1  0  0  0  0
  1 15  1  0  0  0  0
  1 16  1  0  0  0  0
 11 17  1  0  0  0  0
 12 18  1  0  0  0  0
 13 19  1  0  0  0  0
 14 20  1  0  0  0  0
M  END
