 xtb: 6.7.1 (edcfbbe)
          04032520343D

 10  9  0     0  0            999 V2000
   -1.2662    0.7023   -0.0027 C   0  0  0  0  0  0  0  0  0  0  0  0
    0.0000   -0.1033    0.0003 C   0  0  0  0  0  0  0  0  0  0  0  0
    0.0001   -1.3199    0.0003 O   0  0  0  0  0  0  0  0  0  0  0  0
    1.2661    0.7025    0.0027 C   0  0  0  0  0  0  0  0  0  0  0  0
   -1.4012    1.1354    0.9864 H   0  0  0  0  0  0  0  0  0  0  0  0
   -1.1972    1.5149   -0.7195 H   0  0  0  0  0  0  0  0  0  0  0  0
   -2.1191    0.0680   -0.2276 H   0  0  0  0  0  0  0  0  0  0  0  0
    1.4014    1.1341   -0.9871 H   0  0  0  0  0  0  0  0  0  0  0  0
    2.1190    0.0687    0.2288 H   0  0  0  0  0  0  0  0  0  0  0  0
    1.1967    1.5162    0.7182 H   0  0  0  0  0  0  0  0  0  0  0  0
  1  2  1  0  0  0  0
  2  3  2  0  0  0  0
  2  4  1  0  0  0  0
  1  5  1  0  0  0  0
  1  6  1  0  0  0  0
  1  7  1  0  0  0  0
  4  8  1  0  0  0  0
  4  9  1  0  0  0  0
  4 10  1  0  0  0  0
M  END
