  23
 
 C         -6.2033479988       -0.1151654638        0.0008171820
 C         -4.8676951304        0.6192033596        0.0002922714
 C         -3.6872669370       -0.3497063826       -0.0007560798
 C         -2.3467723116        0.3811970988       -0.0020559073
 C         -1.1677585245       -0.5898674803       -0.0062564630
 C          0.1688622842        0.1522748666       -0.0066070926
 C          1.3210059347       -0.8322093904       -0.0008274092
 Br         3.0595843581        0.1007653788        0.0000364058
 H         -7.0288295450        0.5922918528        0.0012376977
 H         -6.2911366363       -0.7458403390       -0.8810374046
 H         -6.2904249493       -0.7460417608        0.8825996943
 H         -4.8061508432        1.2610624672        0.8818717787
 H         -4.8071779288        1.2615921872       -0.8809684306
 H         -3.7503930622       -0.9918842353       -0.8822074092
 H         -3.7487014723       -0.9917201354        0.8809248774
 H         -2.2844717419        1.0214941847        0.8805128901
 H         -2.2880480448        1.0252134672       -0.8821833560
 H         -1.2288312873       -1.2291381908       -0.8895176615
 H         -1.2260235511       -1.2328641424        0.8745258204
 H          0.2344799167        0.7895147512       -0.8911427378
 H          0.2310475570        0.7956976094        0.8737221725
 H          1.3227179357       -1.4521517356        0.8939100525
 H          1.3257479382       -1.4600097143       -0.8901012941
          23
        -26.73757642
 C         -5.5368034157       -0.9321608025        0.1894376068
 C         -4.4857518792        0.0134508638       -0.3797524484
 C         -3.1180808530       -0.2044708722        0.2635224960
 C         -2.0617494500        0.7446751766       -0.2971150091
 C         -0.6927774279        0.5092808926        0.3362459644
 C          0.3623090312        1.4607844221       -0.2228696354
 C          1.7274984843        1.2595200492        0.4032607334
 Br         2.4975912476       -0.5004715079       -0.0571161454
 H         -5.2484115595       -1.9673587761        0.0209286356
 H         -5.6473287141       -0.7783358583        1.2605793477
 H         -6.5008090710       -0.7624556519       -0.2836557536
 H         -4.8005710807        1.0465940815       -0.2164145524
 H         -4.4048657999       -0.1410748778       -1.4580147768
 H         -2.8016803324       -1.2365725137        0.0950785788
 H         -3.2007481356       -0.0569595325        1.3429629312
 H         -2.3722115423        1.7766279481       -0.1177294600
 H         -1.9888650144        0.6037134446       -1.3779022144
 H         -0.3855375898       -0.5227361059        0.1498921657
 H         -0.7663866264        0.6438549680        1.4182433540
 H          0.4317914971        1.3356478115       -1.3057514777
 H          0.0641094501        2.4931686000       -0.0229337769
 H          2.4518424904        1.9877689373        0.0435751256
 H          1.6828122092        1.2784416984        1.4907608500
