 xtb: 6.7.1 (edcfbbe)
          04092507313D

 38 37  0     0  0            999 V2000
    3.7768   -1.8713    1.4989 C   0  0  0  0  0  0  0  0  0  0  0  0
    2.9254   -2.6212    0.4874 C   0  0  0  0  0  0  0  0  0  0  0  0
    2.7196   -1.8213   -0.6951 O   0  0  0  0  0  0  0  0  0  0  0  0
    1.7281   -0.9695   -0.7126 C   0  0  0  0  0  0  0  0  0  0  0  0
    0.9462   -0.8061    0.2124 O   0  0  0  0  0  0  0  0  0  0  0  0
    1.6214   -0.2023   -2.0033 C   0  0  0  0  0  0  0  0  0  0  0  0
    0.5794    0.8933   -1.8577 C   0  0  0  0  0  0  0  0  0  0  0  0
    0.4953    1.4747   -2.7805 H   0  0  0  0  0  0  0  0  0  0  0  0
    0.9054    1.8620   -0.7286 C   0  0  0  0  0  0  0  0  0  0  0  0
    1.9589    1.8528   -0.1326 O   0  0  0  0  0  0  0  0  0  0  0  0
   -0.0594    2.7366   -0.5529 O   0  0  0  0  0  0  0  0  0  0  0  0
    0.1635    3.8497    0.3380 C   0  0  0  0  0  0  0  0  0  0  0  0
   -0.0604    3.4882    1.7959 C   0  0  0  0  0  0  0  0  0  0  0  0
   -1.1281    0.2418   -1.6970 S   0  0  0  0  0  0  0  0  0  0  0  0
   -1.4781   -0.7178    0.1634 P   0  0  0  0  0  0  0  0  0  0  0  0
   -1.1903   -2.6278    0.5074 S   0  0  0  0  0  0  0  0  0  0  0  0
   -1.1666    0.3291    1.3425 O   0  0  0  0  0  0  0  0  0  0  0  0
   -0.3821    0.0099    2.4901 C   0  0  0  0  0  0  0  0  0  0  0  0
   -3.0802   -0.6091    0.0799 O   0  0  0  0  0  0  0  0  0  0  0  0
   -3.8088    0.6256   -0.0110 C   0  0  0  0  0  0  0  0  0  0  0  0
    4.7364   -1.6117    1.0608 H   0  0  0  0  0  0  0  0  0  0  0  0
    3.2730   -0.9577    1.8078 H   0  0  0  0  0  0  0  0  0  0  0  0
    3.9349   -2.4985    2.3697 H   0  0  0  0  0  0  0  0  0  0  0  0
    1.9494   -2.8842    0.9064 H   0  0  0  0  0  0  0  0  0  0  0  0
    3.4309   -3.5153    0.1235 H   0  0  0  0  0  0  0  0  0  0  0  0
    1.3436   -0.8894   -2.8042 H   0  0  0  0  0  0  0  0  0  0  0  0
    2.5992    0.2240   -2.2334 H   0  0  0  0  0  0  0  0  0  0  0  0
    1.1862    4.2073    0.1865 H   0  0  0  0  0  0  0  0  0  0  0  0
   -0.5565    4.5949   -0.0005 H   0  0  0  0  0  0  0  0  0  0  0  0
    0.7089    2.7999    2.1364 H   0  0  0  0  0  0  0  0  0  0  0  0
   -0.0156    4.3909    2.3963 H   0  0  0  0  0  0  0  0  0  0  0  0
   -1.0330    3.0204    1.9227 H   0  0  0  0  0  0  0  0  0  0  0  0
   -0.8526    0.5120    3.3325 H   0  0  0  0  0  0  0  0  0  0  0  0
    0.6360    0.3672    2.3415 H   0  0  0  0  0  0  0  0  0  0  0  0
   -0.3650   -1.0697    2.6486 H   0  0  0  0  0  0  0  0  0  0  0  0
   -4.7914    0.4127    0.4037 H   0  0  0  0  0  0  0  0  0  0  0  0
   -3.8902    0.9233   -1.0554 H   0  0  0  0  0  0  0  0  0  0  0  0
   -3.3122    1.4048    0.5649 H   0  0  0  0  0  0  0  0  0  0  0  0
  1  2  1  0  0  0  0
  2  3  1  0  0  0  0
  3  4  4  0  0  0  0
  4  5  2  0  0  0  0
  4  6  1  0  0  0  0
  6  7  1  0  0  0  0
  7  8  1  0  0  0  0
  7  9  1  0  0  0  0
  9 10  2  0  0  0  0
  9 11  1  0  0  0  0
 11 12  1  0  0  0  0
 12 13  1  0  0  0  0
  7 14  1  0  0  0  0
 14 15  1  0  0  0  0
 15 16  2  0  0  0  0
 15 17  1  0  0  0  0
 17 18  1  0  0  0  0
 15 19  1  0  0  0  0
 19 20  1  0  0  0  0
  1 21  1  0  0  0  0
  1 22  1  0  0  0  0
  1 23  1  0  0  0  0
  2 24  1  0  0  0  0
  2 25  1  0  0  0  0
  6 26  1  0  0  0  0
  6 27  1  0  0  0  0
 12 28  1  0  0  0  0
 12 29  1  0  0  0  0
 13 30  1  0  0  0  0
 13 31  1  0  0  0  0
 13 32  1  0  0  0  0
 18 33  1  0  0  0  0
 18 34  1  0  0  0  0
 18 35  1  0  0  0  0
 20 36  1  0  0  0  0
 20 37  1  0  0  0  0
 20 38  1  0  0  0  0
M  END
