41
 xtb: 6.7.1 (edcfbbe)
C            2.92034432967792       -2.54350597547871        1.63283234915888
C            1.78516236616029       -2.26661021857930        0.67872799763091
O            1.51598639194465       -0.82816749327425        0.57998542152023
P            2.37471536492024        0.16453833602726       -0.34626004961650
S            3.30741248769172       -0.61601493730394       -1.86318932497683
O            3.37574314444002        0.94287015091634        0.64480215388960
C            2.93798734640553        1.37999835367249        1.98589900907002
C            4.11102934438124        2.07108332723180        2.62838751637751
S            0.95086078642763        1.67713120559301       -0.78998827825187
C            0.09977919890368        0.92291136510035       -2.23617387714387
S           -0.78166593942631       -0.66213221089538       -1.98344932990623
P           -2.23010395142333       -0.06920227060611       -0.54816829051394
S           -3.00372699471291        1.70044581792159       -0.81191711480578
O           -1.57155175012852       -0.33480404915636        0.89439271787211
C           -1.41336573528235        0.68058397346707        1.93931316455295
C           -2.51792360070844        0.54008851247044        2.95600197904624
O           -3.15189054274622       -1.37054385385282       -0.75187576533364
C           -4.12058080742507       -1.80569055881892        0.27110407970296
C           -5.44822855133594       -1.10840266799005        0.10861661207790
H            3.85740798521250       -2.10752209836761        1.27228518772891
H            2.70134589286760       -2.14706157111483        2.62829772960513
H            3.05698557475479       -3.62682072591213        1.71534672742382
H            0.84075371536229       -2.68356098097522        1.03584888481531
H            1.98764839001021       -2.65048096816906       -0.32563794570333
H            2.08505005890511        2.05800249216772        1.87444657123724
H            2.62751441030167        0.49510125329024        2.54776348302291
H            3.81902383956902        2.40267392120244        3.62950673560548
H            4.96021820902620        1.38868341237317        2.72460755245587
H            4.41722619173347        2.94666230374024        2.04938619534767
H            0.83039970591135        0.72528273898124       -3.02573880325073
H           -0.60622213127533        1.68706686116092       -2.57440302423518
H           -0.42873567068024        0.48264181963217        2.37088181506377
H           -1.40676873310063        1.67097603668672        1.47687741460825
H           -3.49482019733715        0.73174806556731        2.50091298707852
H           -2.51997661399078       -0.45971626391160        3.39948575986592
H           -2.36022715204682        1.27144623510330        3.75571002202976
H           -4.20733404698391       -2.88055835622152        0.09995368242688
H           -3.68581335286828       -1.64045279383072        1.26088697285221
H           -6.15909538303211       -1.54880834471288        0.81570694821345
H           -5.36956805194247       -0.03917750327880        0.32030116856795
H           -5.84009135676549       -1.24517009786556       -0.90334457475145
