 xtb: 6.7.1 (edcfbbe)
          04092507313D

 38 37  0     0  0            999 V2000
    4.7447   -1.6832    0.9307 C   0  0  0  0  0  0  0  0  0  0  0  0
    4.3084   -2.4926   -0.2798 C   0  0  0  0  0  0  0  0  0  0  0  0
    2.8872   -2.3633   -0.4762 O   0  0  0  0  0  0  0  0  0  0  0  0
    2.4464   -1.4445   -1.3082 C   0  0  0  0  0  0  0  0  0  0  0  0
    3.1462   -0.7414   -2.0055 O   0  0  0  0  0  0  0  0  0  0  0  0
    0.9275   -1.4095   -1.3408 C   0  0  0  0  0  0  0  0  0  0  0  0
    0.4820    0.0464   -1.3996 C   0  0  0  0  0  0  0  0  0  0  0  0
    0.9533    0.5236   -2.2676 H   0  0  0  0  0  0  0  0  0  0  0  0
    0.9661    0.8066   -0.1780 C   0  0  0  0  0  0  0  0  0  0  0  0
    1.9763    0.5017    0.4133 O   0  0  0  0  0  0  0  0  0  0  0  0
    0.2163    1.8530    0.0931 O   0  0  0  0  0  0  0  0  0  0  0  0
    0.5958    2.7054    1.1932 C   0  0  0  0  0  0  0  0  0  0  0  0
    0.0407    4.0906    0.9290 C   0  0  0  0  0  0  0  0  0  0  0  0
   -1.3078    0.2428   -1.6831 S   0  0  0  0  0  0  0  0  0  0  0  0
   -2.0392    0.1084    0.2780 P   0  0  0  0  0  0  0  0  0  0  0  0
   -0.9282   -0.7306    1.6768 S   0  0  0  0  0  0  0  0  0  0  0  0
   -2.5379    1.5862    0.5662 O   0  0  0  0  0  0  0  0  0  0  0  0
   -3.2603    1.8787    1.7758 C   0  0  0  0  0  0  0  0  0  0  0  0
   -3.4501   -0.6266    0.0992 O   0  0  0  0  0  0  0  0  0  0  0  0
   -3.5464   -2.0464   -0.0571 C   0  0  0  0  0  0  0  0  0  0  0  0
    4.2368   -2.0409    1.8219 H   0  0  0  0  0  0  0  0  0  0  0  0
    5.8177   -1.7737    1.0621 H   0  0  0  0  0  0  0  0  0  0  0  0
    4.4847   -0.6367    0.7851 H   0  0  0  0  0  0  0  0  0  0  0  0
    4.4755   -3.5597   -0.1293 H   0  0  0  0  0  0  0  0  0  0  0  0
    4.8165   -2.1477   -1.1849 H   0  0  0  0  0  0  0  0  0  0  0  0
    0.5470   -1.9122   -0.4510 H   0  0  0  0  0  0  0  0  0  0  0  0
    0.5845   -1.9315   -2.2350 H   0  0  0  0  0  0  0  0  0  0  0  0
    0.1793    2.2658    2.1055 H   0  0  0  0  0  0  0  0  0  0  0  0
    1.6870    2.6990    1.2697 H   0  0  0  0  0  0  0  0  0  0  0  0
   -1.0295    4.0283    0.7547 H   0  0  0  0  0  0  0  0  0  0  0  0
    0.2333    4.7226    1.7892 H   0  0  0  0  0  0  0  0  0  0  0  0
    0.5123    4.5235    0.0515 H   0  0  0  0  0  0  0  0  0  0  0  0
   -2.7392    1.4587    2.6381 H   0  0  0  0  0  0  0  0  0  0  0  0
   -4.2650    1.4635    1.7147 H   0  0  0  0  0  0  0  0  0  0  0  0
   -3.2961    2.9631    1.8423 H   0  0  0  0  0  0  0  0  0  0  0  0
   -4.5865   -2.2945    0.1385 H   0  0  0  0  0  0  0  0  0  0  0  0
   -2.8943   -2.5472    0.6609 H   0  0  0  0  0  0  0  0  0  0  0  0
   -3.2701   -2.3267   -1.0728 H   0  0  0  0  0  0  0  0  0  0  0  0
  1  2  1  0  0  0  0
  2  3  1  0  0  0  0
  3  4  1  0  0  0  0
  4  5  2  0  0  0  0
  4  6  1  0  0  0  0
  6  7  1  0  0  0  0
  7  8  1  0  0  0  0
  7  9  1  0  0  0  0
  9 10  2  0  0  0  0
  9 11  1  0  0  0  0
 11 12  1  0  0  0  0
 12 13  1  0  0  0  0
  7 14  1  0  0  0  0
 14 15  1  0  0  0  0
 15 16  2  0  0  0  0
 15 17  2  0  0  0  0
 17 18  1  0  0  0  0
 15 19  1  0  0  0  0
 19 20  1  0  0  0  0
  1 21  1  0  0  0  0
  1 22  1  0  0  0  0
  1 23  1  0  0  0  0
  2 24  1  0  0  0  0
  2 25  1  0  0  0  0
  6 26  1  0  0  0  0
  6 27  1  0  0  0  0
 12 28  1  0  0  0  0
 12 29  1  0  0  0  0
 13 30  1  0  0  0  0
 13 31  1  0  0  0  0
 13 32  1  0  0  0  0
 18 33  1  0  0  0  0
 18 34  1  0  0  0  0
 18 35  1  0  0  0  0
 20 36  1  0  0  0  0
 20 37  1  0  0  0  0
 20 38  1  0  0  0  0
M  END
