 xtb: 6.7.1 (edcfbbe)
          04092505203D

 41 40  0     0  0            999 V2000
    4.0028   -1.3683   -2.6471 C   0  0  0  0  0  0  0  0  0  0  0  0
    4.2519   -1.8459   -1.2312 C   0  0  0  0  0  0  0  0  0  0  0  0
    3.0412   -1.8836   -0.4561 O   0  0  0  0  0  0  0  0  0  0  0  0
    2.2747   -0.5635   -0.0096 P   0  0  0  0  0  0  0  0  0  0  0  0
    3.4582    0.9201    0.4986 S   0  0  0  0  0  0  0  0  0  0  0  0
    1.3104   -1.1369    1.1079 O   0  0  0  0  0  0  0  0  0  0  0  0
    1.7583   -1.3559    2.4676 C   0  0  0  0  0  0  0  0  0  0  0  0
    1.3953   -0.1769    3.3486 C   0  0  0  0  0  0  0  0  0  0  0  0
    0.8639   -0.1897   -1.5351 S   0  0  0  0  0  0  0  0  0  0  0  0
    0.4096    1.4684   -0.9591 C   0  0  0  0  0  0  0  0  0  0  0  0
   -0.5905    1.4369    0.5452 S   0  0  0  0  0  0  0  0  0  0  0  0
   -2.3183    0.5597   -0.3524 P   0  0  0  0  0  0  0  0  0  0  0  0
   -2.7070    1.1764   -2.1656 S   0  0  0  0  0  0  0  0  0  0  0  0
   -3.4404    0.8343    0.7385 O   0  0  0  0  0  0  0  0  0  0  0  0
   -3.9758    2.1595    0.9438 C   0  0  0  0  0  0  0  0  0  0  0  0
   -5.2477    2.0240    1.7556 C   0  0  0  0  0  0  0  0  0  0  0  0
   -2.1581   -1.0021   -0.2714 O   0  0  0  0  0  0  0  0  0  0  0  0
   -1.9998   -1.7235    0.9781 C   0  0  0  0  0  0  0  0  0  0  0  0
   -1.4178   -3.0825    0.6514 C   0  0  0  0  0  0  0  0  0  0  0  0
    4.9167   -1.4605   -3.2251 H   0  0  0  0  0  0  0  0  0  0  0  0
    3.2182   -1.9590   -3.1135 H   0  0  0  0  0  0  0  0  0  0  0  0
    3.6943   -0.3234   -2.6387 H   0  0  0  0  0  0  0  0  0  0  0  0
    4.9668   -1.1895   -0.7245 H   0  0  0  0  0  0  0  0  0  0  0  0
    4.6105   -2.8757   -1.2091 H   0  0  0  0  0  0  0  0  0  0  0  0
    1.2439   -2.2655    2.7820 H   0  0  0  0  0  0  0  0  0  0  0  0
    2.8381   -1.5263    2.4676 H   0  0  0  0  0  0  0  0  0  0  0  0
    0.3273    0.0176    3.3027 H   0  0  0  0  0  0  0  0  0  0  0  0
    1.6782   -0.3962    4.3731 H   0  0  0  0  0  0  0  0  0  0  0  0
    1.9207    0.7165    3.0183 H   0  0  0  0  0  0  0  0  0  0  0  0
   -0.1642    1.9318   -1.7620 H   0  0  0  0  0  0  0  0  0  0  0  0
    1.3119    2.0360   -0.7303 H   0  0  0  0  0  0  0  0  0  0  0  0
   -3.2237    2.7523    1.4712 H   0  0  0  0  0  0  0  0  0  0  0  0
   -4.1677    2.6116   -0.0346 H   0  0  0  0  0  0  0  0  0  0  0  0
   -5.9711    1.4183    1.2170 H   0  0  0  0  0  0  0  0  0  0  0  0
   -5.0317    1.5517    2.7094 H   0  0  0  0  0  0  0  0  0  0  0  0
   -5.6651    3.0103    1.9290 H   0  0  0  0  0  0  0  0  0  0  0  0
   -1.3359   -1.1488    1.6299 H   0  0  0  0  0  0  0  0  0  0  0  0
   -2.9849   -1.8040    1.4409 H   0  0  0  0  0  0  0  0  0  0  0  0
   -0.4261   -2.9712    0.2194 H   0  0  0  0  0  0  0  0  0  0  0  0
   -1.3511   -3.6706    1.5611 H   0  0  0  0  0  0  0  0  0  0  0  0
   -2.0541   -3.5953   -0.0641 H   0  0  0  0  0  0  0  0  0  0  0  0
  1  2  1  0  0  0  0
  2  3  1  0  0  0  0
  3  4  2  0  0  0  0
  4  5  2  0  0  0  0
  4  6  2  0  0  0  0
  6  7  1  0  0  0  0
  7  8  1  0  0  0  0
  4  9  1  0  0  0  0
  9 10  1  0  0  0  0
 10 11  1  0  0  0  0
 11 12  1  0  0  0  0
 12 13  2  0  0  0  0
 12 14  2  0  0  0  0
 14 15  1  0  0  0  0
 15 16  1  0  0  0  0
 12 17  2  0  0  0  0
 17 18  1  0  0  0  0
 18 19  1  0  0  0  0
  1 20  1  0  0  0  0
  1 21  1  0  0  0  0
  1 22  1  0  0  0  0
  2 23  1  0  0  0  0
  2 24  1  0  0  0  0
  7 25  1  0  0  0  0
  7 26  1  0  0  0  0
  8 27  1  0  0  0  0
  8 28  1  0  0  0  0
  8 29  1  0  0  0  0
 10 30  1  0  0  0  0
 10 31  1  0  0  0  0
 15 32  1  0  0  0  0
 15 33  1  0  0  0  0
 16 34  1  0  0  0  0
 16 35  1  0  0  0  0
 16 36  1  0  0  0  0
 18 37  1  0  0  0  0
 18 38  1  0  0  0  0
 19 39  1  0  0  0  0
 19 40  1  0  0  0  0
 19 41  1  0  0  0  0
M  END
