41
 xtb: 6.7.1 (edcfbbe)
C            3.24253474991904        2.39871187895034       -1.48212657297232
C            3.91016072093148        1.87614839471083       -0.23447244958171
O            3.64512310662141        0.44392356056898       -0.04835600749561
P            2.31128725004620       -0.12754604569596        0.65403230882572
S            1.50803271491152        1.00115186857499        2.02090198457733
O            2.77723428245967       -1.59566641192508        1.11248607930365
C            3.25577254819744       -1.86517370418099        2.47891776684302
C            4.64999371927611       -1.33159723146398        2.69539487965273
S            1.15829329952560       -0.60504528503349       -1.06130707413685
C           -0.08684342654261       -1.76723981485644       -0.36576473743493
S           -1.48534028893338       -1.08336740595308        0.60610488238573
P           -2.55293795405597       -0.03761476700808       -0.90371634258896
S           -2.63047861550971       -0.88930672912581       -2.64919891430742
O           -1.91079012745271        1.43086783009932       -1.00445424938268
C           -1.79930002482281        2.30034072857981        0.18071204370245
C           -0.89840253294840        3.44807907052900       -0.19016478272819
O           -3.92773266270544        0.25700791695717       -0.12286953024685
C           -5.13771252894633       -0.56477942243578       -0.28070058109668
C           -5.04754364540822       -1.87140302780429        0.46642900283871
H            3.54544564837182        3.43976152208289       -1.63479471698769
H            3.54362019659596        1.81951853994787       -2.35999192192929
H            2.15179152876445        2.37430207717280       -1.39352372862547
H            3.58376708491652        2.41041645853515        0.66276375670200
H            4.99838584305660        1.93092863152402       -0.30629898086721
H            2.53690627461961       -1.43908473257866        3.18503255873125
H            3.22298008336901       -2.95411060896331        2.54856695279195
H            4.99261371743681       -1.64176264367192        3.68810569187703
H            5.34335975901303       -1.73221123417727        1.95045293843809
H            4.67380945732246       -0.23838810876136        2.65494091665512
H            0.40871815879568       -2.48446531156611        0.29440299169484
H           -0.48691576965534       -2.30123747850379       -1.23261554605957
H           -2.80544045800433        2.63717347806227        0.44589118675601
H           -1.37713284439375        1.71287275998132        1.00295592621201
H            0.09640634439978        3.08745330142500       -0.46733974631499
H           -1.31658262300604        4.02627008792592       -1.01899049015602
H           -0.79610203578872        4.10898906915874        0.67630528689677
H           -5.92802543137462        0.07273469818393        0.12029247413815
H           -5.30819337079389       -0.71503959794912       -1.35080252467332
H           -4.81286542634464       -1.70647980870799        1.52203721107842
H           -6.02038274529766       -2.37027437136575        0.40385002922261
H           -4.29615056483812       -2.53621577407594        0.03164572178227
