 xtb: 6.7.1 (edcfbbe)
          04092505213D

 41 40  0     0  0            999 V2000
    4.0444   -0.1815   -2.3943 C   0  0  0  0  0  0  0  0  0  0  0  0
    4.5605   -0.0249   -0.9772 C   0  0  0  0  0  0  0  0  0  0  0  0
    3.7068   -0.6646   -0.0153 O   0  0  0  0  0  0  0  0  0  0  0  0
    2.2489   -0.1365    0.3071 P   0  0  0  0  0  0  0  0  0  0  0  0
    2.0575    1.8176    0.2317 S   0  0  0  0  0  0  0  0  0  0  0  0
    2.1641   -0.8695    1.7070 O   0  0  0  0  0  0  0  0  0  0  0  0
    1.0524   -0.7958    2.6154 C   0  0  0  0  0  0  0  0  0  0  0  0
    1.2051    0.3770    3.5652 C   0  0  0  0  0  0  0  0  0  0  0  0
    0.9542   -1.2649   -0.9515 S   0  0  0  0  0  0  0  0  0  0  0  0
    0.1730    0.0683   -1.9201 C   0  0  0  0  0  0  0  0  0  0  0  0
   -1.6339   -0.0648   -2.0498 S   0  0  0  0  0  0  0  0  0  0  0  0
   -2.2218    0.0646   -0.0093 P   0  0  0  0  0  0  0  0  0  0  0  0
   -4.0734    0.6169    0.3127 S   0  0  0  0  0  0  0  0  0  0  0  0
   -1.1283    0.9758    0.7029 O   0  0  0  0  0  0  0  0  0  0  0  0
   -1.4089    2.3594    0.9818 C   0  0  0  0  0  0  0  0  0  0  0  0
   -1.3818    3.2106   -0.2715 C   0  0  0  0  0  0  0  0  0  0  0  0
   -1.7611   -1.3064    0.6558 O   0  0  0  0  0  0  0  0  0  0  0  0
   -2.0637   -2.6135    0.1317 C   0  0  0  0  0  0  0  0  0  0  0  0
   -3.5181   -2.7810   -0.2555 C   0  0  0  0  0  0  0  0  0  0  0  0
    3.1300    0.3966   -2.5221 H   0  0  0  0  0  0  0  0  0  0  0  0
    4.7911    0.1865   -3.0907 H   0  0  0  0  0  0  0  0  0  0  0  0
    3.8380   -1.2276   -2.6066 H   0  0  0  0  0  0  0  0  0  0  0  0
    4.6515    1.0344   -0.7156 H   0  0  0  0  0  0  0  0  0  0  0  0
    5.5224   -0.5213   -0.8424 H   0  0  0  0  0  0  0  0  0  0  0  0
    0.1164   -0.7263    2.0558 H   0  0  0  0  0  0  0  0  0  0  0  0
    1.0814   -1.7453    3.1540 H   0  0  0  0  0  0  0  0  0  0  0  0
    0.3742    0.3840    4.2633 H   0  0  0  0  0  0  0  0  0  0  0  0
    2.1392    0.2944    4.1143 H   0  0  0  0  0  0  0  0  0  0  0  0
    1.2091    1.3130    3.0107 H   0  0  0  0  0  0  0  0  0  0  0  0
    0.5182    0.0019   -2.9491 H   0  0  0  0  0  0  0  0  0  0  0  0
    0.4480    1.0237   -1.4665 H   0  0  0  0  0  0  0  0  0  0  0  0
   -2.3874    2.4215    1.4677 H   0  0  0  0  0  0  0  0  0  0  0  0
   -0.6253    2.6576    1.6795 H   0  0  0  0  0  0  0  0  0  0  0  0
   -0.3948    3.1860   -0.7274 H   0  0  0  0  0  0  0  0  0  0  0  0
   -2.1228    2.8471   -0.9831 H   0  0  0  0  0  0  0  0  0  0  0  0
   -1.6207    4.2360   -0.0085 H   0  0  0  0  0  0  0  0  0  0  0  0
   -1.4096   -2.7955   -0.7273 H   0  0  0  0  0  0  0  0  0  0  0  0
   -1.7890   -3.2859    0.9464 H   0  0  0  0  0  0  0  0  0  0  0  0
   -3.7675   -2.1187   -1.0845 H   0  0  0  0  0  0  0  0  0  0  0  0
   -3.6907   -3.8085   -0.5595 H   0  0  0  0  0  0  0  0  0  0  0  0
   -4.1658   -2.5398    0.5843 H   0  0  0  0  0  0  0  0  0  0  0  0
  1  2  1  0  0  0  0
  2  3  1  0  0  0  0
  3  4  2  0  0  0  0
  4  5  2  0  0  0  0
  4  6  2  0  0  0  0
  6  7  1  0  0  0  0
  7  8  1  0  0  0  0
  4  9  1  0  0  0  0
  9 10  1  0  0  0  0
 10 11  1  0  0  0  0
 11 12  1  0  0  0  0
 12 13  2  0  0  0  0
 12 14  2  0  0  0  0
 14 15  1  0  0  0  0
 15 16  1  0  0  0  0
 12 17  2  0  0  0  0
 17 18  1  0  0  0  0
 18 19  1  0  0  0  0
  1 20  1  0  0  0  0
  1 21  1  0  0  0  0
  1 22  1  0  0  0  0
  2 23  1  0  0  0  0
  2 24  1  0  0  0  0
  7 25  1  0  0  0  0
  7 26  1  0  0  0  0
  8 27  1  0  0  0  0
  8 28  1  0  0  0  0
  8 29  1  0  0  0  0
 10 30  1  0  0  0  0
 10 31  1  0  0  0  0
 15 32  1  0  0  0  0
 15 33  1  0  0  0  0
 16 34  1  0  0  0  0
 16 35  1  0  0  0  0
 16 36  1  0  0  0  0
 18 37  1  0  0  0  0
 18 38  1  0  0  0  0
 19 39  1  0  0  0  0
 19 40  1  0  0  0  0
 19 41  1  0  0  0  0
M  END
