 xtb: 6.7.1 (edcfbbe)
          04092507313D

 38 37  0     0  0            999 V2000
    3.9775   -2.6398    0.8013 C   0  0  0  0  0  0  0  0  0  0  0  0
    2.4764   -2.7270    0.5790 C   0  0  0  0  0  0  0  0  0  0  0  0
    2.0840   -2.0013   -0.6016 O   0  0  0  0  0  0  0  0  0  0  0  0
    1.9279   -0.7000   -0.5225 C   0  0  0  0  0  0  0  0  0  0  0  0
    2.0631   -0.0352    0.4853 O   0  0  0  0  0  0  0  0  0  0  0  0
    1.5703   -0.0864   -1.8635 C   0  0  0  0  0  0  0  0  0  0  0  0
    0.3710    0.8563   -1.7278 C   0  0  0  0  0  0  0  0  0  0  0  0
    0.3480    1.5514   -2.5700 H   0  0  0  0  0  0  0  0  0  0  0  0
    0.4305    1.6452   -0.4347 C   0  0  0  0  0  0  0  0  0  0  0  0
   -0.3951    1.5044    0.4536 O   0  0  0  0  0  0  0  0  0  0  0  0
    1.3921    2.5158   -0.4260 O   0  0  0  0  0  0  0  0  0  0  0  0
    1.6152    3.2687    0.7866 C   0  0  0  0  0  0  0  0  0  0  0  0
    2.7280    4.2609    0.5180 C   0  0  0  0  0  0  0  0  0  0  0  0
   -1.2273   -0.0240   -1.7982 S   0  0  0  0  0  0  0  0  0  0  0  0
   -1.8495   -0.4134    0.1927 P   0  0  0  0  0  0  0  0  0  0  0  0
   -0.7205   -1.2423    1.5761 S   0  0  0  0  0  0  0  0  0  0  0  0
   -2.9039    0.6929    0.6336 O   0  0  0  0  0  0  0  0  0  0  0  0
   -2.8110    1.4922    1.8129 C   0  0  0  0  0  0  0  0  0  0  0  0
   -2.9998   -1.4568   -0.2450 O   0  0  0  0  0  0  0  0  0  0  0  0
   -2.6909   -2.7831   -0.6742 C   0  0  0  0  0  0  0  0  0  0  0  0
    4.2663   -1.6114    1.0056 H   0  0  0  0  0  0  0  0  0  0  0  0
    4.2463   -3.2554    1.6531 H   0  0  0  0  0  0  0  0  0  0  0  0
    4.5069   -2.9924   -0.0797 H   0  0  0  0  0  0  0  0  0  0  0  0
    1.9243   -2.3243    1.4340 H   0  0  0  0  0  0  0  0  0  0  0  0
    2.1598   -3.7508    0.3807 H   0  0  0  0  0  0  0  0  0  0  0  0
    1.3563   -0.8708   -2.5873 H   0  0  0  0  0  0  0  0  0  0  0  0
    2.4354    0.4935   -2.1924 H   0  0  0  0  0  0  0  0  0  0  0  0
    0.6796    3.7638    1.0635 H   0  0  0  0  0  0  0  0  0  0  0  0
    1.8793    2.5528    1.5711 H   0  0  0  0  0  0  0  0  0  0  0  0
    3.6347    3.7340    0.2377 H   0  0  0  0  0  0  0  0  0  0  0  0
    2.4448    4.9318   -0.2873 H   0  0  0  0  0  0  0  0  0  0  0  0
    2.9140    4.8380    1.4174 H   0  0  0  0  0  0  0  0  0  0  0  0
   -3.7866    1.4487    2.2931 H   0  0  0  0  0  0  0  0  0  0  0  0
   -2.5648    2.5134    1.5271 H   0  0  0  0  0  0  0  0  0  0  0  0
   -2.0417    1.1018    2.4815 H   0  0  0  0  0  0  0  0  0  0  0  0
   -3.6295   -3.3301   -0.6340 H   0  0  0  0  0  0  0  0  0  0  0  0
   -1.9601   -3.2334    0.0016 H   0  0  0  0  0  0  0  0  0  0  0  0
   -2.2994   -2.7693   -1.6918 H   0  0  0  0  0  0  0  0  0  0  0  0
  1  2  1  0  0  0  0
  2  3  1  0  0  0  0
  3  4  4  0  0  0  0
  4  5  2  0  0  0  0
  4  6  1  0  0  0  0
  6  7  1  0  0  0  0
  7  8  1  0  0  0  0
  7  9  1  0  0  0  0
  9 10  2  0  0  0  0
  9 11  4  0  0  0  0
 11 12  1  0  0  0  0
 12 13  1  0  0  0  0
  7 14  1  0  0  0  0
 14 15  1  0  0  0  0
 15 16  2  0  0  0  0
 15 17  2  0  0  0  0
 17 18  1  0  0  0  0
 15 19  1  0  0  0  0
 19 20  1  0  0  0  0
  1 21  1  0  0  0  0
  1 22  1  0  0  0  0
  1 23  1  0  0  0  0
  2 24  1  0  0  0  0
  2 25  1  0  0  0  0
  6 26  1  0  0  0  0
  6 27  1  0  0  0  0
 12 28  1  0  0  0  0
 12 29  1  0  0  0  0
 13 30  1  0  0  0  0
 13 31  1  0  0  0  0
 13 32  1  0  0  0  0
 18 33  1  0  0  0  0
 18 34  1  0  0  0  0
 18 35  1  0  0  0  0
 20 36  1  0  0  0  0
 20 37  1  0  0  0  0
 20 38  1  0  0  0  0
M  END
