 xtb: 6.7.1 (edcfbbe)
          04092505203D

 41 40  0     0  0            999 V2000
    1.1185   -2.1036    1.9365 C   0  0  0  0  0  0  0  0  0  0  0  0
    2.1946   -2.1561    0.8692 C   0  0  0  0  0  0  0  0  0  0  0  0
    2.8794   -0.8945    0.7885 O   0  0  0  0  0  0  0  0  0  0  0  0
    2.7226    0.1171   -0.4321 P   0  0  0  0  0  0  0  0  0  0  0  0
    2.9175   -0.7241   -2.1896 S   0  0  0  0  0  0  0  0  0  0  0  0
    3.8679    1.1527   -0.1440 O   0  0  0  0  0  0  0  0  0  0  0  0
    3.8407    2.2195    0.8373 C   0  0  0  0  0  0  0  0  0  0  0  0
    3.5297    1.7243    2.2324 C   0  0  0  0  0  0  0  0  0  0  0  0
    0.9096    1.2163   -0.1403 S   0  0  0  0  0  0  0  0  0  0  0  0
   -0.0483    0.5236   -1.5031 C   0  0  0  0  0  0  0  0  0  0  0  0
   -0.8662   -1.0409   -1.0808 S   0  0  0  0  0  0  0  0  0  0  0  0
   -2.4177   -0.1683    0.0491 P   0  0  0  0  0  0  0  0  0  0  0  0
   -3.2224    1.4836   -0.6505 S   0  0  0  0  0  0  0  0  0  0  0  0
   -1.6997   -0.0703    1.4565 O   0  0  0  0  0  0  0  0  0  0  0  0
   -2.2140    0.7529    2.5307 C   0  0  0  0  0  0  0  0  0  0  0  0
   -1.4506    2.0602    2.6017 C   0  0  0  0  0  0  0  0  0  0  0  0
   -3.4603   -1.3387    0.3162 O   0  0  0  0  0  0  0  0  0  0  0  0
   -4.5647   -1.6049   -0.5650 C   0  0  0  0  0  0  0  0  0  0  0  0
   -4.1048   -2.1458   -1.9035 C   0  0  0  0  0  0  0  0  0  0  0  0
    0.3545   -1.3738    1.6795 H   0  0  0  0  0  0  0  0  0  0  0  0
    0.6529   -3.0805    2.0184 H   0  0  0  0  0  0  0  0  0  0  0  0
    1.5574   -1.8322    2.8924 H   0  0  0  0  0  0  0  0  0  0  0  0
    1.7770   -2.4085   -0.1116 H   0  0  0  0  0  0  0  0  0  0  0  0
    2.9661   -2.8855    1.1252 H   0  0  0  0  0  0  0  0  0  0  0  0
    4.8448    2.6409    0.7713 H   0  0  0  0  0  0  0  0  0  0  0  0
    3.1046    2.9593    0.5126 H   0  0  0  0  0  0  0  0  0  0  0  0
    2.5171    1.3273    2.2695 H   0  0  0  0  0  0  0  0  0  0  0  0
    4.2264    0.9409    2.5184 H   0  0  0  0  0  0  0  0  0  0  0  0
    3.6105    2.5528    2.9293 H   0  0  0  0  0  0  0  0  0  0  0  0
    0.6188    0.3123   -2.3402 H   0  0  0  0  0  0  0  0  0  0  0  0
   -0.8062    1.2612   -1.7687 H   0  0  0  0  0  0  0  0  0  0  0  0
   -3.2809    0.9300    2.3707 H   0  0  0  0  0  0  0  0  0  0  0  0
   -2.0722    0.1542    3.4315 H   0  0  0  0  0  0  0  0  0  0  0  0
   -1.6077    2.6365    1.6924 H   0  0  0  0  0  0  0  0  0  0  0  0
   -1.8024    2.6348    3.4523 H   0  0  0  0  0  0  0  0  0  0  0  0
   -0.3869    1.8682    2.7077 H   0  0  0  0  0  0  0  0  0  0  0  0
   -5.1660   -2.3337   -0.0200 H   0  0  0  0  0  0  0  0  0  0  0  0
   -5.1321   -0.6782   -0.6992 H   0  0  0  0  0  0  0  0  0  0  0  0
   -3.4536   -3.0046   -1.7608 H   0  0  0  0  0  0  0  0  0  0  0  0
   -4.9692   -2.4411   -2.4894 H   0  0  0  0  0  0  0  0  0  0  0  0
   -3.5562   -1.3778   -2.4477 H   0  0  0  0  0  0  0  0  0  0  0  0
  1  2  1  0  0  0  0
  2  3  1  0  0  0  0
  3  4  2  0  0  0  0
  4  5  2  0  0  0  0
  4  6  2  0  0  0  0
  6  7  1  0  0  0  0
  7  8  1  0  0  0  0
  4  9  1  0  0  0  0
  9 10  1  0  0  0  0
 10 11  1  0  0  0  0
 11 12  1  0  0  0  0
 12 13  2  0  0  0  0
 12 14  2  0  0  0  0
 14 15  1  0  0  0  0
 15 16  1  0  0  0  0
 12 17  2  0  0  0  0
 17 18  1  0  0  0  0
 18 19  1  0  0  0  0
  1 20  1  0  0  0  0
  1 21  1  0  0  0  0
  1 22  1  0  0  0  0
  2 23  1  0  0  0  0
  2 24  1  0  0  0  0
  7 25  1  0  0  0  0
  7 26  1  0  0  0  0
  8 27  1  0  0  0  0
  8 28  1  0  0  0  0
  8 29  1  0  0  0  0
 10 30  1  0  0  0  0
 10 31  1  0  0  0  0
 15 32  1  0  0  0  0
 15 33  1  0  0  0  0
 16 34  1  0  0  0  0
 16 35  1  0  0  0  0
 16 36  1  0  0  0  0
 18 37  1  0  0  0  0
 18 38  1  0  0  0  0
 19 39  1  0  0  0  0
 19 40  1  0  0  0  0
 19 41  1  0  0  0  0
M  END
