41
 xtb: 6.7.1 (edcfbbe)
C            1.11923145760344       -0.14786362147767        3.55825940153105
C            2.28514728940438       -0.21412049220188        2.60603413303843
O            1.78574781452763        0.20902575655646        1.28805476881848
P            2.64009122613030       -0.06114842278759       -0.04443405447076
S            3.32193287756297       -1.86514296598698       -0.31845267237065
O            3.72673491467540        1.12554369655031        0.04205322532207
C            5.02312292165667        1.07655967136794       -0.64887839784351
C            4.89706880638577        1.40124288625952       -2.11629652122605
S            1.30067084716149        0.68237408131246       -1.50602990614040
C            0.35661003688768       -0.83054065367232       -1.94054684962091
S           -0.67720586758873       -1.60396182899545       -0.63557567665589
P           -2.07708089142585       -0.06782107024316       -0.23517669310626
S           -2.64191758530814        1.00206814333509       -1.76168908095502
O           -1.38899470621203        0.70521474444185        0.99104226008531
C           -1.79706172080558        2.06503202582520        1.37817269989289
C           -3.12878662590123        2.06978052124114        2.08724629330356
O           -3.21039788946116       -0.90596163496922        0.54512462067679
C           -4.23376446133082       -1.66665763686663       -0.19110499442382
C           -5.57467035696663       -1.00595037527337        0.00392743229485
H            0.70926709226945        0.86512624430807        3.60741135168394
H            0.32873863734725       -0.83974388895399        3.25379034121654
H            1.46129139640789       -0.43074546349945        4.55857457723664
H            2.68005447375829       -1.23132521656824        2.52039213709981
H            3.09269190111917        0.46663558938297        2.89318361311371
H            5.61969440498417        1.82388217383852       -0.12189136639949
H            5.46204876945632        0.08815188079451       -0.48403967755314
H            5.90245709621908        1.45648914271397       -2.54665543067878
H            4.33914658166224        0.62977592706564       -2.65448641207748
H            4.40568436087769        2.36724394047600       -2.26474824173858
H            1.04904772877036       -1.61477491999885       -2.26038927827304
H           -0.27708348568158       -0.53718422673033       -2.78264080239356
H           -0.98811957776900        2.39457575276993        2.03343055085441
H           -1.80567444688617        2.68932876531196        0.47946795971258
H           -3.33229895705078        3.08612227502103        2.44038443643812
H           -3.94345305753648        1.77269891922900        1.41965514564323
H           -3.11409506671809        1.40020074732934        2.95203136289537
H           -3.95940740486360       -1.72214213127660       -1.24906711087088
H           -4.20529912611406       -2.67254462271851        0.23455228210446
H           -6.34424691110708       -1.60840357581247       -0.48950259155643
H           -5.82230680644916       -0.93385057127242        1.06691188392449
H           -5.58389481223921       -0.00416235168430       -0.43468378844856
