 xtb: 6.7.1 (edcfbbe)
          04032520063D

 14 14  0     0  0            999 V2000
   -0.7252   -1.8175   -0.0003 C   0  0  0  0  0  0  0  0  0  0  0  0
    0.5999   -1.4265   -0.0001 C   0  0  0  0  0  0  0  0  0  0  0  0
    0.9030   -0.0631    0.0001 C   0  0  0  0  0  0  0  0  0  0  0  0
   -0.1089    0.8928    0.0001 C   0  0  0  0  0  0  0  0  0  0  0  0
   -1.4389    0.4847   -0.0000 C   0  0  0  0  0  0  0  0  0  0  0  0
   -1.7403   -0.8759   -0.0002 C   0  0  0  0  0  0  0  0  0  0  0  0
   -2.3922    1.4432   -0.0000 O   0  0  0  0  0  0  0  0  0  0  0  0
    2.2511    0.3537    0.0002 C   0  0  0  0  0  0  0  0  0  0  0  0
    3.3510    0.6851    0.0004 N   0  0  0  0  0  0  0  0  0  0  0  0
   -0.9728   -2.8672   -0.0004 H   0  0  0  0  0  0  0  0  0  0  0  0
    1.3965   -2.1533   -0.0001 H   0  0  0  0  0  0  0  0  0  0  0  0
    0.1222    1.9463    0.0003 H   0  0  0  0  0  0  0  0  0  0  0  0
   -2.7707   -1.1982   -0.0004 H   0  0  0  0  0  0  0  0  0  0  0  0
   -3.2809    1.0539   -0.0001 H   0  0  0  0  0  0  0  0  0  0  0  0
  1  2  4  0  0  0  0
  2  3  4  0  0  0  0
  3  4  4  0  0  0  0
  4  5  4  0  0  0  0
  1  6  4  0  0  0  0
  5  6  4  0  0  0  0
  5  7  1  0  0  0  0
  3  8  1  0  0  0  0
  8  9  3  0  0  0  0
  1 10  1  0  0  0  0
  2 11  1  0  0  0  0
  4 12  1  0  0  0  0
  6 13  1  0  0  0  0
  7 14  1  0  0  0  0
M  END
