 xtb: 6.7.1 (edcfbbe)
          04092505213D

 41 40  0     0  0            999 V2000
    4.3205    0.0232   -2.1786 C   0  0  0  0  0  0  0  0  0  0  0  0
    4.5063   -0.3561   -0.7230 C   0  0  0  0  0  0  0  0  0  0  0  0
    3.2577   -0.6656   -0.0829 O   0  0  0  0  0  0  0  0  0  0  0  0
    2.1809    0.4638    0.2540 P   0  0  0  0  0  0  0  0  0  0  0  0
    2.9178    2.1896    0.8087 S   0  0  0  0  0  0  0  0  0  0  0  0
    1.2590   -0.2741    1.3076 O   0  0  0  0  0  0  0  0  0  0  0  0
    1.5099   -0.2141    2.7253 C   0  0  0  0  0  0  0  0  0  0  0  0
    2.7340   -1.0161    3.1133 C   0  0  0  0  0  0  0  0  0  0  0  0
    0.8676    0.4974   -1.4030 S   0  0  0  0  0  0  0  0  0  0  0  0
    0.4528   -1.2654   -1.5245 C   0  0  0  0  0  0  0  0  0  0  0  0
   -0.6885   -1.8693   -0.2403 S   0  0  0  0  0  0  0  0  0  0  0  0
   -2.0860   -0.2994   -0.3179 P   0  0  0  0  0  0  0  0  0  0  0  0
   -2.5901    0.3643   -2.0969 S   0  0  0  0  0  0  0  0  0  0  0  0
   -1.4633    0.7490    0.6958 O   0  0  0  0  0  0  0  0  0  0  0  0
   -1.7279    2.1602    0.5891 C   0  0  0  0  0  0  0  0  0  0  0  0
   -3.1415    2.4885    1.0188 C   0  0  0  0  0  0  0  0  0  0  0  0
   -3.2912   -0.8707    0.5438 O   0  0  0  0  0  0  0  0  0  0  0  0
   -4.2269   -1.8213   -0.0065 C   0  0  0  0  0  0  0  0  0  0  0  0
   -5.4630   -1.8206    0.8699 C   0  0  0  0  0  0  0  0  0  0  0  0
    3.7378    0.9414   -2.2516 H   0  0  0  0  0  0  0  0  0  0  0  0
    5.2923    0.1877   -2.6328 H   0  0  0  0  0  0  0  0  0  0  0  0
    3.8017   -0.7648   -2.7184 H   0  0  0  0  0  0  0  0  0  0  0  0
    4.9825    0.4625   -0.1739 H   0  0  0  0  0  0  0  0  0  0  0  0
    5.0934   -1.2691   -0.6143 H   0  0  0  0  0  0  0  0  0  0  0  0
    1.6263    0.8362    3.0120 H   0  0  0  0  0  0  0  0  0  0  0  0
    0.5984   -0.6208    3.1663 H   0  0  0  0  0  0  0  0  0  0  0  0
    2.8203   -1.0376    4.1951 H   0  0  0  0  0  0  0  0  0  0  0  0
    2.6512   -2.0318    2.7355 H   0  0  0  0  0  0  0  0  0  0  0  0
    3.6273   -0.5537    2.6960 H   0  0  0  0  0  0  0  0  0  0  0  0
    1.3543   -1.8674   -1.4402 H   0  0  0  0  0  0  0  0  0  0  0  0
   -0.0160   -1.3794   -2.5006 H   0  0  0  0  0  0  0  0  0  0  0  0
   -0.9821    2.6230    1.2386 H   0  0  0  0  0  0  0  0  0  0  0  0
   -1.5511    2.4716   -0.4466 H   0  0  0  0  0  0  0  0  0  0  0  0
   -3.2842    3.5643    0.9990 H   0  0  0  0  0  0  0  0  0  0  0  0
   -3.8479    2.0228    0.3324 H   0  0  0  0  0  0  0  0  0  0  0  0
   -3.3248    2.1138    2.0222 H   0  0  0  0  0  0  0  0  0  0  0  0
   -4.4611   -1.5233   -1.0341 H   0  0  0  0  0  0  0  0  0  0  0  0
   -3.7467   -2.8034   -0.0194 H   0  0  0  0  0  0  0  0  0  0  0  0
   -6.1670   -2.5545    0.4916 H   0  0  0  0  0  0  0  0  0  0  0  0
   -5.1923   -2.0729    1.8910 H   0  0  0  0  0  0  0  0  0  0  0  0
   -5.9291   -0.8395    0.8614 H   0  0  0  0  0  0  0  0  0  0  0  0
  1  2  1  0  0  0  0
  2  3  1  0  0  0  0
  3  4  2  0  0  0  0
  4  5  2  0  0  0  0
  4  6  2  0  0  0  0
  6  7  1  0  0  0  0
  7  8  1  0  0  0  0
  4  9  1  0  0  0  0
  9 10  1  0  0  0  0
 10 11  1  0  0  0  0
 11 12  1  0  0  0  0
 12 13  2  0  0  0  0
 12 14  2  0  0  0  0
 14 15  1  0  0  0  0
 15 16  1  0  0  0  0
 12 17  2  0  0  0  0
 17 18  1  0  0  0  0
 18 19  1  0  0  0  0
  1 20  1  0  0  0  0
  1 21  1  0  0  0  0
  1 22  1  0  0  0  0
  2 23  1  0  0  0  0
  2 24  1  0  0  0  0
  7 25  1  0  0  0  0
  7 26  1  0  0  0  0
  8 27  1  0  0  0  0
  8 28  1  0  0  0  0
  8 29  1  0  0  0  0
 10 30  1  0  0  0  0
 10 31  1  0  0  0  0
 15 32  1  0  0  0  0
 15 33  1  0  0  0  0
 16 34  1  0  0  0  0
 16 35  1  0  0  0  0
 16 36  1  0  0  0  0
 18 37  1  0  0  0  0
 18 38  1  0  0  0  0
 19 39  1  0  0  0  0
 19 40  1  0  0  0  0
 19 41  1  0  0  0  0
M  END
