 xtb: 6.7.1 (edcfbbe)
          04092505203D

 41 40  0     0  0            999 V2000
    3.6441   -1.2152   -2.6910 C   0  0  0  0  0  0  0  0  0  0  0  0
    3.9905    0.1060   -2.0366 C   0  0  0  0  0  0  0  0  0  0  0  0
    3.5870    0.1544   -0.6556 O   0  0  0  0  0  0  0  0  0  0  0  0
    2.0632    0.1129   -0.2072 P   0  0  0  0  0  0  0  0  0  0  0  0
    0.8698    1.1730   -1.3395 S   0  0  0  0  0  0  0  0  0  0  0  0
    2.0996    0.6610    1.2682 O   0  0  0  0  0  0  0  0  0  0  0  0
    2.9074    0.1164    2.3402 C   0  0  0  0  0  0  0  0  0  0  0  0
    4.2399    0.8302    2.4329 C   0  0  0  0  0  0  0  0  0  0  0  0
    1.7171   -1.9797   -0.0165 S   0  0  0  0  0  0  0  0  0  0  0  0
    0.0254   -1.9722    0.6299 C   0  0  0  0  0  0  0  0  0  0  0  0
   -1.2217   -1.5100   -0.6154 S   0  0  0  0  0  0  0  0  0  0  0  0
   -2.0222    0.1940    0.3325 P   0  0  0  0  0  0  0  0  0  0  0  0
   -1.0681    0.9604    1.8604 S   0  0  0  0  0  0  0  0  0  0  0  0
   -3.4287   -0.4476    0.7594 O   0  0  0  0  0  0  0  0  0  0  0  0
   -4.2307    0.0886    1.8232 C   0  0  0  0  0  0  0  0  0  0  0  0
   -4.8779    1.4016    1.4306 C   0  0  0  0  0  0  0  0  0  0  0  0
   -2.3244    1.2770   -0.7807 O   0  0  0  0  0  0  0  0  0  0  0  0
   -2.5680    1.0224   -2.1817 C   0  0  0  0  0  0  0  0  0  0  0  0
   -3.7614    0.1190   -2.4094 C   0  0  0  0  0  0  0  0  0  0  0  0
    4.0267   -2.0434   -2.0997 H   0  0  0  0  0  0  0  0  0  0  0  0
    2.5630   -1.3147   -2.7778 H   0  0  0  0  0  0  0  0  0  0  0  0
    4.0802   -1.2474   -3.6842 H   0  0  0  0  0  0  0  0  0  0  0  0
    3.5084    0.9350   -2.5638 H   0  0  0  0  0  0  0  0  0  0  0  0
    5.0687    0.2673   -1.9970 H   0  0  0  0  0  0  0  0  0  0  0  0
    2.3018    0.2794    3.2344 H   0  0  0  0  0  0  0  0  0  0  0  0
    3.0455   -0.9555    2.1713 H   0  0  0  0  0  0  0  0  0  0  0  0
    4.0818    1.8996    2.5446 H   0  0  0  0  0  0  0  0  0  0  0  0
    4.7810    0.4555    3.2961 H   0  0  0  0  0  0  0  0  0  0  0  0
    4.8260    0.6530    1.5352 H   0  0  0  0  0  0  0  0  0  0  0  0
   -0.0480   -1.2744    1.4690 H   0  0  0  0  0  0  0  0  0  0  0  0
   -0.1737   -2.9940    0.9412 H   0  0  0  0  0  0  0  0  0  0  0  0
   -4.9715   -0.6888    2.0150 H   0  0  0  0  0  0  0  0  0  0  0  0
   -3.5947    0.2239    2.7043 H   0  0  0  0  0  0  0  0  0  0  0  0
   -5.4895    1.7635    2.2510 H   0  0  0  0  0  0  0  0  0  0  0  0
   -4.1053    2.1389    1.2109 H   0  0  0  0  0  0  0  0  0  0  0  0
   -5.4990    1.2701    0.5485 H   0  0  0  0  0  0  0  0  0  0  0  0
   -2.7278    2.0211   -2.5911 H   0  0  0  0  0  0  0  0  0  0  0  0
   -1.6566    0.5988   -2.6127 H   0  0  0  0  0  0  0  0  0  0  0  0
   -3.5867   -0.8577   -1.9604 H   0  0  0  0  0  0  0  0  0  0  0  0
   -4.6550    0.5553   -1.9706 H   0  0  0  0  0  0  0  0  0  0  0  0
   -3.9098   -0.0049   -3.4775 H   0  0  0  0  0  0  0  0  0  0  0  0
  1  2  1  0  0  0  0
  2  3  1  0  0  0  0
  3  4  2  0  0  0  0
  4  5  2  0  0  0  0
  4  6  2  0  0  0  0
  6  7  1  0  0  0  0
  7  8  1  0  0  0  0
  4  9  1  0  0  0  0
  9 10  1  0  0  0  0
 10 11  1  0  0  0  0
 11 12  1  0  0  0  0
 12 13  2  0  0  0  0
 12 14  1  0  0  0  0
 14 15  1  0  0  0  0
 15 16  1  0  0  0  0
 12 17  2  0  0  0  0
 17 18  1  0  0  0  0
 18 19  1  0  0  0  0
  1 20  1  0  0  0  0
  1 21  1  0  0  0  0
  1 22  1  0  0  0  0
  2 23  1  0  0  0  0
  2 24  1  0  0  0  0
  7 25  1  0  0  0  0
  7 26  1  0  0  0  0
  8 27  1  0  0  0  0
  8 28  1  0  0  0  0
  8 29  1  0  0  0  0
 10 30  1  0  0  0  0
 10 31  1  0  0  0  0
 15 32  1  0  0  0  0
 15 33  1  0  0  0  0
 16 34  1  0  0  0  0
 16 35  1  0  0  0  0
 16 36  1  0  0  0  0
 18 37  1  0  0  0  0
 18 38  1  0  0  0  0
 19 39  1  0  0  0  0
 19 40  1  0  0  0  0
 19 41  1  0  0  0  0
M  END
