 xtb: 6.7.1 (edcfbbe)
          04092513583D

 41 40  0     0  0            999 V2000
    5.1189   -1.5375   -0.5126 C   0  0  0  0  0  0  0  0  0  0  0  0
    4.6628   -0.4618   -1.4771 C   0  0  0  0  0  0  0  0  0  0  0  0
    3.2409   -0.2153   -1.3923 O   0  0  0  0  0  0  0  0  0  0  0  0
    2.6110    0.5016   -0.1210 P   0  0  0  0  0  0  0  0  0  0  0  0
    3.6956    1.9089    0.7005 S   0  0  0  0  0  0  0  0  0  0  0  0
    2.2855   -0.7460    0.8191 O   0  0  0  0  0  0  0  0  0  0  0  0
    2.1573   -0.6145    2.2428 C   0  0  0  0  0  0  0  0  0  0  0  0
    0.9124    0.1532    2.6366 C   0  0  0  0  0  0  0  0  0  0  0  0
    0.7640    1.1228   -0.9413 S   0  0  0  0  0  0  0  0  0  0  0  0
    0.1382   -0.4588   -1.5926 C   0  0  0  0  0  0  0  0  0  0  0  0
   -0.7458   -1.4630   -0.3704 S   0  0  0  0  0  0  0  0  0  0  0  0
   -2.4919   -0.2909   -0.2463 P   0  0  0  0  0  0  0  0  0  0  0  0
   -3.1061    0.5655   -1.9060 S   0  0  0  0  0  0  0  0  0  0  0  0
   -2.1460    0.6719    0.9568 O   0  0  0  0  0  0  0  0  0  0  0  0
   -2.8423    1.9129    1.2134 C   0  0  0  0  0  0  0  0  0  0  0  0
   -1.8461    2.9093    1.7702 C   0  0  0  0  0  0  0  0  0  0  0  0
   -3.5538   -1.2638    0.4296 O   0  0  0  0  0  0  0  0  0  0  0  0
   -4.2388   -2.2917   -0.3165 C   0  0  0  0  0  0  0  0  0  0  0  0
   -5.4509   -2.7256    0.4837 C   0  0  0  0  0  0  0  0  0  0  0  0
    6.1657   -1.7601   -0.6972 H   0  0  0  0  0  0  0  0  0  0  0  0
    5.0101   -1.1910    0.5139 H   0  0  0  0  0  0  0  0  0  0  0  0
    4.5293   -2.4408   -0.6446 H   0  0  0  0  0  0  0  0  0  0  0  0
    4.8154   -0.7599   -2.5151 H   0  0  0  0  0  0  0  0  0  0  0  0
    5.1882    0.4782   -1.2797 H   0  0  0  0  0  0  0  0  0  0  0  0
    2.1288   -1.6440    2.6012 H   0  0  0  0  0  0  0  0  0  0  0  0
    3.0496   -0.1064    2.6239 H   0  0  0  0  0  0  0  0  0  0  0  0
    0.8332    0.1781    3.7188 H   0  0  0  0  0  0  0  0  0  0  0  0
    0.9774    1.1751    2.2621 H   0  0  0  0  0  0  0  0  0  0  0  0
    0.0231   -0.3164    2.2229 H   0  0  0  0  0  0  0  0  0  0  0  0
    0.9682   -1.0543   -1.9599 H   0  0  0  0  0  0  0  0  0  0  0  0
   -0.5507   -0.1934   -2.3954 H   0  0  0  0  0  0  0  0  0  0  0  0
   -3.2841    2.2711    0.2773 H   0  0  0  0  0  0  0  0  0  0  0  0
   -3.6383    1.6994    1.9302 H   0  0  0  0  0  0  0  0  0  0  0  0
   -2.3575    3.8412    1.9889 H   0  0  0  0  0  0  0  0  0  0  0  0
   -1.4017    2.5208    2.6819 H   0  0  0  0  0  0  0  0  0  0  0  0
   -1.0576    3.0961    1.0447 H   0  0  0  0  0  0  0  0  0  0  0  0
   -4.5266   -1.8826   -1.2907 H   0  0  0  0  0  0  0  0  0  0  0  0
   -3.5441   -3.1222   -0.4665 H   0  0  0  0  0  0  0  0  0  0  0  0
   -5.1415   -3.0837    1.4613 H   0  0  0  0  0  0  0  0  0  0  0  0
   -6.1347   -1.8917    0.6142 H   0  0  0  0  0  0  0  0  0  0  0  0
   -5.9590   -3.5244   -0.0470 H   0  0  0  0  0  0  0  0  0  0  0  0
  1  2  1  0  0  0  0
  2  3  1  0  0  0  0
  3  4  2  0  0  0  0
  4  5  2  0  0  0  0
  4  6  2  0  0  0  0
  6  7  1  0  0  0  0
  7  8  1  0  0  0  0
  4  9  1  0  0  0  0
  9 10  1  0  0  0  0
 10 11  1  0  0  0  0
 11 12  1  0  0  0  0
 12 13  2  0  0  0  0
 12 14  2  0  0  0  0
 14 15  1  0  0  0  0
 15 16  1  0  0  0  0
 12 17  2  0  0  0  0
 17 18  1  0  0  0  0
 18 19  1  0  0  0  0
  1 20  1  0  0  0  0
  1 21  1  0  0  0  0
  1 22  1  0  0  0  0
  2 23  1  0  0  0  0
  2 24  1  0  0  0  0
  7 25  1  0  0  0  0
  7 26  1  0  0  0  0
  8 27  1  0  0  0  0
  8 28  1  0  0  0  0
  8 29  1  0  0  0  0
 10 30  1  0  0  0  0
 10 31  1  0  0  0  0
 15 32  1  0  0  0  0
 15 33  1  0  0  0  0
 16 34  1  0  0  0  0
 16 35  1  0  0  0  0
 16 36  1  0  0  0  0
 18 37  1  0  0  0  0
 18 38  1  0  0  0  0
 19 39  1  0  0  0  0
 19 40  1  0  0  0  0
 19 41  1  0  0  0  0
M  END
