 xtb: 6.7.1 (edcfbbe)
          04092505203D

 41 40  0     0  0            999 V2000
    2.4375   -1.3383    3.1395 C   0  0  0  0  0  0  0  0  0  0  0  0
    1.7715   -0.0279    2.7749 C   0  0  0  0  0  0  0  0  0  0  0  0
    1.3110   -0.0029    1.4070 O   0  0  0  0  0  0  0  0  0  0  0  0
    2.2298   -0.1537    0.1262 P   0  0  0  0  0  0  0  0  0  0  0  0
    2.9154   -1.9334   -0.3488 S   0  0  0  0  0  0  0  0  0  0  0  0
    3.3541    0.9321    0.4136 O   0  0  0  0  0  0  0  0  0  0  0  0
    4.5872    0.9710   -0.3265 C   0  0  0  0  0  0  0  0  0  0  0  0
    4.3773    1.4491   -1.7483 C   0  0  0  0  0  0  0  0  0  0  0  0
    0.9415    0.7211   -1.3078 S   0  0  0  0  0  0  0  0  0  0  0  0
    0.0995   -0.8080   -1.7925 C   0  0  0  0  0  0  0  0  0  0  0  0
   -0.8260   -1.5655   -0.4300 S   0  0  0  0  0  0  0  0  0  0  0  0
   -2.1641    0.0484   -0.1237 P   0  0  0  0  0  0  0  0  0  0  0  0
   -2.7460    0.9785   -1.7523 S   0  0  0  0  0  0  0  0  0  0  0  0
   -1.4206    0.9354    0.9526 O   0  0  0  0  0  0  0  0  0  0  0  0
   -1.5083    2.3733    0.9629 C   0  0  0  0  0  0  0  0  0  0  0  0
   -2.8355    2.8287    1.5319 C   0  0  0  0  0  0  0  0  0  0  0  0
   -3.2843   -0.6063    0.7916 O   0  0  0  0  0  0  0  0  0  0  0  0
   -4.1847   -1.6314    0.3257 C   0  0  0  0  0  0  0  0  0  0  0  0
   -5.4335   -1.0303   -0.2904 C   0  0  0  0  0  0  0  0  0  0  0  0
    1.7743   -2.1723    2.9200 H   0  0  0  0  0  0  0  0  0  0  0  0
    3.3548   -1.4683    2.5668 H   0  0  0  0  0  0  0  0  0  0  0  0
    2.6772   -1.3382    4.1982 H   0  0  0  0  0  0  0  0  0  0  0  0
    2.4529    0.8134    2.9219 H   0  0  0  0  0  0  0  0  0  0  0  0
    0.8558    0.1273    3.3489 H   0  0  0  0  0  0  0  0  0  0  0  0
    5.2142    1.6583    0.2429 H   0  0  0  0  0  0  0  0  0  0  0  0
    5.0267   -0.0317   -0.3188 H   0  0  0  0  0  0  0  0  0  0  0  0
    5.3409    1.5741   -2.2316 H   0  0  0  0  0  0  0  0  0  0  0  0
    3.7952    0.7161   -2.3051 H   0  0  0  0  0  0  0  0  0  0  0  0
    3.8430    2.3958   -1.7545 H   0  0  0  0  0  0  0  0  0  0  0  0
    0.8333   -1.5466   -2.1143 H   0  0  0  0  0  0  0  0  0  0  0  0
   -0.5833   -0.5422   -2.5989 H   0  0  0  0  0  0  0  0  0  0  0  0
   -0.6658    2.6884    1.5800 H   0  0  0  0  0  0  0  0  0  0  0  0
   -1.3743    2.7429   -0.0595 H   0  0  0  0  0  0  0  0  0  0  0  0
   -2.8533    3.9124    1.5883 H   0  0  0  0  0  0  0  0  0  0  0  0
   -3.6434    2.4922    0.8831 H   0  0  0  0  0  0  0  0  0  0  0  0
   -2.9837    2.4085    2.5229 H   0  0  0  0  0  0  0  0  0  0  0  0
   -3.6607   -2.2725   -0.3894 H   0  0  0  0  0  0  0  0  0  0  0  0
   -4.4225   -2.2074    1.2221 H   0  0  0  0  0  0  0  0  0  0  0  0
   -6.1098   -1.8293   -0.5766 H   0  0  0  0  0  0  0  0  0  0  0  0
   -5.9281   -0.3804    0.4261 H   0  0  0  0  0  0  0  0  0  0  0  0
   -5.1786   -0.4484   -1.1732 H   0  0  0  0  0  0  0  0  0  0  0  0
  1  2  1  0  0  0  0
  2  3  1  0  0  0  0
  3  4  2  0  0  0  0
  4  5  2  0  0  0  0
  4  6  2  0  0  0  0
  6  7  1  0  0  0  0
  7  8  1  0  0  0  0
  4  9  1  0  0  0  0
  9 10  1  0  0  0  0
 10 11  1  0  0  0  0
 11 12  1  0  0  0  0
 12 13  2  0  0  0  0
 12 14  2  0  0  0  0
 14 15  1  0  0  0  0
 15 16  1  0  0  0  0
 12 17  2  0  0  0  0
 17 18  1  0  0  0  0
 18 19  1  0  0  0  0
  1 20  1  0  0  0  0
  1 21  1  0  0  0  0
  1 22  1  0  0  0  0
  2 23  1  0  0  0  0
  2 24  1  0  0  0  0
  7 25  1  0  0  0  0
  7 26  1  0  0  0  0
  8 27  1  0  0  0  0
  8 28  1  0  0  0  0
  8 29  1  0  0  0  0
 10 30  1  0  0  0  0
 10 31  1  0  0  0  0
 15 32  1  0  0  0  0
 15 33  1  0  0  0  0
 16 34  1  0  0  0  0
 16 35  1  0  0  0  0
 16 36  1  0  0  0  0
 18 37  1  0  0  0  0
 18 38  1  0  0  0  0
 19 39  1  0  0  0  0
 19 40  1  0  0  0  0
 19 41  1  0  0  0  0
M  END
