 xtb: 6.7.1 (edcfbbe)
          04092507313D

 38 37  0     0  0            999 V2000
    3.0701   -3.7297    1.3367 C   0  0  0  0  0  0  0  0  0  0  0  0
    2.9887   -3.1749   -0.0763 C   0  0  0  0  0  0  0  0  0  0  0  0
    2.9166   -1.7352   -0.0603 O   0  0  0  0  0  0  0  0  0  0  0  0
    1.7408   -1.1636    0.0712 C   0  0  0  0  0  0  0  0  0  0  0  0
    0.6910   -1.7733    0.1505 O   0  0  0  0  0  0  0  0  0  0  0  0
    1.8541    0.3441    0.1111 C   0  0  0  0  0  0  0  0  0  0  0  0
    0.5291    0.9857   -0.2597 C   0  0  0  0  0  0  0  0  0  0  0  0
    0.1611    0.5951   -1.2196 H   0  0  0  0  0  0  0  0  0  0  0  0
    0.5399    2.5033   -0.3455 C   0  0  0  0  0  0  0  0  0  0  0  0
   -0.4046    3.1349   -0.7656 O   0  0  0  0  0  0  0  0  0  0  0  0
    1.6611    3.0250    0.0877 O   0  0  0  0  0  0  0  0  0  0  0  0
    1.7956    4.4630    0.0747 C   0  0  0  0  0  0  0  0  0  0  0  0
    3.2736    4.8011    0.0677 C   0  0  0  0  0  0  0  0  0  0  0  0
   -0.7800    0.5788    0.9588 S   0  0  0  0  0  0  0  0  0  0  0  0
   -1.8214   -0.9136   -0.1546 P   0  0  0  0  0  0  0  0  0  0  0  0
   -1.3610   -1.1668   -2.0405 S   0  0  0  0  0  0  0  0  0  0  0  0
   -1.9078   -2.2392    0.6914 O   0  0  0  0  0  0  0  0  0  0  0  0
   -2.3091   -2.2421    2.0754 C   0  0  0  0  0  0  0  0  0  0  0  0
   -3.3416   -0.4019    0.0245 O   0  0  0  0  0  0  0  0  0  0  0  0
   -3.7945    0.7792   -0.6367 C   0  0  0  0  0  0  0  0  0  0  0  0
    2.1549   -3.5057    1.8800 H   0  0  0  0  0  0  0  0  0  0  0  0
    3.1966   -4.8062    1.2912 H   0  0  0  0  0  0  0  0  0  0  0  0
    3.9133   -3.2907    1.8626 H   0  0  0  0  0  0  0  0  0  0  0  0
    2.1087   -3.5625   -0.5981 H   0  0  0  0  0  0  0  0  0  0  0  0
    3.8934   -3.3935   -0.6435 H   0  0  0  0  0  0  0  0  0  0  0  0
    2.6386    0.6564   -0.5784 H   0  0  0  0  0  0  0  0  0  0  0  0
    2.1496    0.6404    1.1201 H   0  0  0  0  0  0  0  0  0  0  0  0
    1.2786    4.8512   -0.8077 H   0  0  0  0  0  0  0  0  0  0  0  0
    1.2994    4.8495    0.9692 H   0  0  0  0  0  0  0  0  0  0  0  0
    3.3917    5.8793    0.0873 H   0  0  0  0  0  0  0  0  0  0  0  0
    3.7573    4.3721    0.9397 H   0  0  0  0  0  0  0  0  0  0  0  0
    3.7468    4.4080   -0.8272 H   0  0  0  0  0  0  0  0  0  0  0  0
   -2.1890   -3.2724    2.4001 H   0  0  0  0  0  0  0  0  0  0  0  0
   -3.3468   -1.9245    2.1612 H   0  0  0  0  0  0  0  0  0  0  0  0
   -1.6644   -1.5772    2.6503 H   0  0  0  0  0  0  0  0  0  0  0  0
   -3.6561    0.6811   -1.7148 H   0  0  0  0  0  0  0  0  0  0  0  0
   -3.2434    1.6511   -0.2792 H   0  0  0  0  0  0  0  0  0  0  0  0
   -4.8497    0.8673   -0.3929 H   0  0  0  0  0  0  0  0  0  0  0  0
  1  2  1  0  0  0  0
  2  3  1  0  0  0  0
  3  4  4  0  0  0  0
  4  5  2  0  0  0  0
  4  6  1  0  0  0  0
  6  7  1  0  0  0  0
  7  8  1  0  0  0  0
  7  9  1  0  0  0  0
  9 10  2  0  0  0  0
  9 11  4  0  0  0  0
 11 12  1  0  0  0  0
 12 13  1  0  0  0  0
  7 14  1  0  0  0  0
 14 15  1  0  0  0  0
 15 16  2  0  0  0  0
 15 17  2  0  0  0  0
 17 18  1  0  0  0  0
 15 19  1  0  0  0  0
 19 20  1  0  0  0  0
  1 21  1  0  0  0  0
  1 22  1  0  0  0  0
  1 23  1  0  0  0  0
  2 24  1  0  0  0  0
  2 25  1  0  0  0  0
  6 26  1  0  0  0  0
  6 27  1  0  0  0  0
 12 28  1  0  0  0  0
 12 29  1  0  0  0  0
 13 30  1  0  0  0  0
 13 31  1  0  0  0  0
 13 32  1  0  0  0  0
 18 33  1  0  0  0  0
 18 34  1  0  0  0  0
 18 35  1  0  0  0  0
 20 36  1  0  0  0  0
 20 37  1  0  0  0  0
 20 38  1  0  0  0  0
M  END
