38
 xtb: 6.7.1 (edcfbbe)
C            5.24365902513355       -2.35509593786331       -1.21858671208893
C            3.94652751348356       -3.09020596681780       -1.46007251790825
O            2.94718767751207       -2.19565348265295       -2.05624736085237
C            2.27456835053124       -1.39606154353960       -1.21982009540215
O            2.39410966036253       -1.40577774362129       -0.00660469891062
C            1.36672035498086       -0.45982231258424       -1.97552851744173
C            0.42186048826226        0.31468109206578       -1.06020052741633
H           -0.11117076783798        1.05625585681400       -1.66745298574004
C            1.20441746279157        1.11102127081796       -0.02526630322015
O            2.18090190826281        1.76412060984709       -0.35268438322450
O            0.69410452831994        1.08354926204269        1.19847851387490
C            1.38834118718812        1.89558181974892        2.20591138459433
C            0.65932302046284        1.70581462578494        3.50995740554958
S           -0.85992206266101       -0.84666652364852       -0.40573017640793
P           -2.40342383371725        0.47495972494356        0.20639298332805
S           -2.46595861682733        2.19530897729825       -0.69233546415045
O           -3.68387901424659       -0.49822191945348        0.07504732661973
C           -4.23791040548815       -0.80035563756288       -1.23575261389898
O           -2.33604945821159        0.64759718395209        1.80004282641988
C           -2.19766986341085       -0.50439068689153        2.68352585677685
H            5.62968779174358       -1.93292153999809       -2.15071283869288
H            5.11883786894687       -1.55164062359199       -0.48771602957434
H            5.98368140588912       -3.06125235475704       -0.82922355426045
H            3.53160299242993       -3.51459497265347       -0.54280775417154
H            4.06306250045615       -3.88040385398215       -2.20341382764382
H            0.81207994782867       -1.00862813641829       -2.74101829528875
H            2.00695722789640        0.25470286737988       -2.50559796677391
H            2.42479733440492        1.55036618714456        2.25745113324339
H            1.37220679162853        2.93599112189884        1.86945394382668
H            0.66621590907205        0.65592715701113        3.81596118924495
H            1.16671647254099        2.29122371803780        4.28236713579610
H           -0.37475002098029        2.05418397400113        3.43964823539425
H           -5.03274905389100       -1.52450907642562       -1.05795968045481
H           -3.47325234749370       -1.23557601723007       -1.88507677102876
H           -4.64680493149712        0.10839927614922       -1.68411505795790
H           -3.02571751361813       -1.20103863874547        2.53322193018027
H           -2.22845907383048       -0.10023432593386        3.69505888947830
H           -1.24016553531497       -1.00078176021817        2.50605032288149
