 xtb: 6.7.1 (edcfbbe)
          04092505203D

 41 40  0     0  0            999 V2000
    5.8444   -0.4069   -0.5406 C   0  0  0  0  0  0  0  0  0  0  0  0
    4.4054   -0.7379   -0.8796 C   0  0  0  0  0  0  0  0  0  0  0  0
    3.5608    0.2195   -0.2087 O   0  0  0  0  0  0  0  0  0  0  0  0
    2.0342    0.4055   -0.6236 P   0  0  0  0  0  0  0  0  0  0  0  0
    1.7418    0.7035   -2.5326 S   0  0  0  0  0  0  0  0  0  0  0  0
    1.6213    1.6023    0.3091 O   0  0  0  0  0  0  0  0  0  0  0  0
    1.9161    1.6074    1.7315 C   0  0  0  0  0  0  0  0  0  0  0  0
    1.0081    2.6246    2.3887 C   0  0  0  0  0  0  0  0  0  0  0  0
    1.1786   -1.3749    0.1725 S   0  0  0  0  0  0  0  0  0  0  0  0
   -0.0951   -1.7445   -1.0778 C   0  0  0  0  0  0  0  0  0  0  0  0
   -1.7383   -1.9360   -0.3583 S   0  0  0  0  0  0  0  0  0  0  0  0
   -1.9949    0.0679    0.3096 P   0  0  0  0  0  0  0  0  0  0  0  0
   -1.3680    1.4744   -0.9057 S   0  0  0  0  0  0  0  0  0  0  0  0
   -1.2836    0.1651    1.7136 O   0  0  0  0  0  0  0  0  0  0  0  0
   -1.2497   -0.8538    2.7472 C   0  0  0  0  0  0  0  0  0  0  0  0
   -2.6253   -1.3405    3.1448 C   0  0  0  0  0  0  0  0  0  0  0  0
   -3.5346    0.1625    0.6863 O   0  0  0  0  0  0  0  0  0  0  0  0
   -4.5467    0.5276   -0.2661 C   0  0  0  0  0  0  0  0  0  0  0  0
   -4.7280   -0.5215   -1.3442 C   0  0  0  0  0  0  0  0  0  0  0  0
    6.0863    0.5958   -0.8817 H   0  0  0  0  0  0  0  0  0  0  0  0
    5.9954   -0.4607    0.5335 H   0  0  0  0  0  0  0  0  0  0  0  0
    6.4977   -1.1198   -1.0327 H   0  0  0  0  0  0  0  0  0  0  0  0
    4.1312   -1.7367   -0.5291 H   0  0  0  0  0  0  0  0  0  0  0  0
    4.2184   -0.6703   -1.9564 H   0  0  0  0  0  0  0  0  0  0  0  0
    1.7441    0.6002    2.1240 H   0  0  0  0  0  0  0  0  0  0  0  0
    2.9695    1.8678    1.8487 H   0  0  0  0  0  0  0  0  0  0  0  0
    1.2186    2.6567    3.4528 H   0  0  0  0  0  0  0  0  0  0  0  0
    1.1753    3.6065    1.9551 H   0  0  0  0  0  0  0  0  0  0  0  0
   -0.0324    2.3510    2.2311 H   0  0  0  0  0  0  0  0  0  0  0  0
    0.1487   -2.6975   -1.5403 H   0  0  0  0  0  0  0  0  0  0  0  0
   -0.0933   -0.9361   -1.8146 H   0  0  0  0  0  0  0  0  0  0  0  0
   -0.6288   -1.6800    2.3884 H   0  0  0  0  0  0  0  0  0  0  0  0
   -0.7479   -0.3479    3.5736 H   0  0  0  0  0  0  0  0  0  0  0  0
   -3.0923   -1.8720    2.3185 H   0  0  0  0  0  0  0  0  0  0  0  0
   -2.5275   -2.0157    3.9892 H   0  0  0  0  0  0  0  0  0  0  0  0
   -3.2562   -0.5013    3.4251 H   0  0  0  0  0  0  0  0  0  0  0  0
   -5.4456    0.6403    0.3416 H   0  0  0  0  0  0  0  0  0  0  0  0
   -4.2735    1.4904   -0.7096 H   0  0  0  0  0  0  0  0  0  0  0  0
   -5.5902   -0.2654   -1.9515 H   0  0  0  0  0  0  0  0  0  0  0  0
   -3.8470   -0.5548   -1.9834 H   0  0  0  0  0  0  0  0  0  0  0  0
   -4.8773   -1.5018   -0.8990 H   0  0  0  0  0  0  0  0  0  0  0  0
  1  2  1  0  0  0  0
  2  3  1  0  0  0  0
  3  4  2  0  0  0  0
  4  5  2  0  0  0  0
  4  6  2  0  0  0  0
  6  7  1  0  0  0  0
  7  8  1  0  0  0  0
  4  9  1  0  0  0  0
  9 10  1  0  0  0  0
 10 11  1  0  0  0  0
 11 12  1  0  0  0  0
 12 13  2  0  0  0  0
 12 14  2  0  0  0  0
 14 15  1  0  0  0  0
 15 16  1  0  0  0  0
 12 17  2  0  0  0  0
 17 18  1  0  0  0  0
 18 19  1  0  0  0  0
  1 20  1  0  0  0  0
  1 21  1  0  0  0  0
  1 22  1  0  0  0  0
  2 23  1  0  0  0  0
  2 24  1  0  0  0  0
  7 25  1  0  0  0  0
  7 26  1  0  0  0  0
  8 27  1  0  0  0  0
  8 28  1  0  0  0  0
  8 29  1  0  0  0  0
 10 30  1  0  0  0  0
 10 31  1  0  0  0  0
 15 32  1  0  0  0  0
 15 33  1  0  0  0  0
 16 34  1  0  0  0  0
 16 35  1  0  0  0  0
 16 36  1  0  0  0  0
 18 37  1  0  0  0  0
 18 38  1  0  0  0  0
 19 39  1  0  0  0  0
 19 40  1  0  0  0  0
 19 41  1  0  0  0  0
M  END
