 xtb: 6.7.1 (edcfbbe)
          04092513593D

 41 40  0     0  0            999 V2000
    4.3967   -0.7771   -2.4087 C   0  0  0  0  0  0  0  0  0  0  0  0
    4.5481   -1.2500   -0.9770 C   0  0  0  0  0  0  0  0  0  0  0  0
    3.2799   -1.4857   -0.3402 O   0  0  0  0  0  0  0  0  0  0  0  0
    2.3017   -0.3186    0.1148 P   0  0  0  0  0  0  0  0  0  0  0  0
    3.1800    1.3083    0.7740 S   0  0  0  0  0  0  0  0  0  0  0  0
    1.3594   -1.0676    1.1472 O   0  0  0  0  0  0  0  0  0  0  0  0
    1.6169   -1.0593    2.5684 C   0  0  0  0  0  0  0  0  0  0  0  0
    2.8223   -1.9007    2.9320 C   0  0  0  0  0  0  0  0  0  0  0  0
    0.9559   -0.1078   -1.5030 S   0  0  0  0  0  0  0  0  0  0  0  0
    0.2383    1.4796   -0.9891 C   0  0  0  0  0  0  0  0  0  0  0  0
   -0.8100    1.3654    0.4770 S   0  0  0  0  0  0  0  0  0  0  0  0
   -2.4251    0.2990   -0.4387 P   0  0  0  0  0  0  0  0  0  0  0  0
   -2.7560    0.7072   -2.3207 S   0  0  0  0  0  0  0  0  0  0  0  0
   -3.6083    0.4928    0.6042 O   0  0  0  0  0  0  0  0  0  0  0  0
   -4.0659    1.7456    1.1484 C   0  0  0  0  0  0  0  0  0  0  0  0
   -4.5228    2.7226    0.0855 C   0  0  0  0  0  0  0  0  0  0  0  0
   -2.1043   -1.2360   -0.2713 O   0  0  0  0  0  0  0  0  0  0  0  0
   -1.8826   -1.8605    1.0159 C   0  0  0  0  0  0  0  0  0  0  0  0
   -3.0904   -2.6798    1.4218 C   0  0  0  0  0  0  0  0  0  0  0  0
    3.7654   -1.4612   -2.9701 H   0  0  0  0  0  0  0  0  0  0  0  0
    3.9456    0.2140   -2.4321 H   0  0  0  0  0  0  0  0  0  0  0  0
    5.3766   -0.7289   -2.8737 H   0  0  0  0  0  0  0  0  0  0  0  0
    5.1014   -0.5126   -0.3862 H   0  0  0  0  0  0  0  0  0  0  0  0
    5.0494   -2.2178   -0.9272 H   0  0  0  0  0  0  0  0  0  0  0  0
    1.7568   -0.0215    2.8874 H   0  0  0  0  0  0  0  0  0  0  0  0
    0.7006   -1.4602    3.0037 H   0  0  0  0  0  0  0  0  0  0  0  0
    2.7151   -2.9063    2.5339 H   0  0  0  0  0  0  0  0  0  0  0  0
    3.7269   -1.4539    2.5218 H   0  0  0  0  0  0  0  0  0  0  0  0
    2.9120   -1.9475    4.0130 H   0  0  0  0  0  0  0  0  0  0  0  0
   -0.3591    1.8288   -1.8320 H   0  0  0  0  0  0  0  0  0  0  0  0
    1.0367    2.1800   -0.7444 H   0  0  0  0  0  0  0  0  0  0  0  0
   -4.8931    1.4531    1.7981 H   0  0  0  0  0  0  0  0  0  0  0  0
   -3.2573    2.1745    1.7466 H   0  0  0  0  0  0  0  0  0  0  0  0
   -5.2824    2.2699   -0.5471 H   0  0  0  0  0  0  0  0  0  0  0  0
   -4.9347    3.6048    0.5656 H   0  0  0  0  0  0  0  0  0  0  0  0
   -3.6847    3.0188   -0.5431 H   0  0  0  0  0  0  0  0  0  0  0  0
   -0.9991   -2.4870    0.8754 H   0  0  0  0  0  0  0  0  0  0  0  0
   -1.6660   -1.0825    1.7540 H   0  0  0  0  0  0  0  0  0  0  0  0
   -2.8845   -3.1733    2.3666 H   0  0  0  0  0  0  0  0  0  0  0  0
   -3.9598   -2.0369    1.5326 H   0  0  0  0  0  0  0  0  0  0  0  0
   -3.3036   -3.4285    0.6640 H   0  0  0  0  0  0  0  0  0  0  0  0
  1  2  1  0  0  0  0
  2  3  1  0  0  0  0
  3  4  2  0  0  0  0
  4  5  2  0  0  0  0
  4  6  2  0  0  0  0
  6  7  1  0  0  0  0
  7  8  1  0  0  0  0
  4  9  1  0  0  0  0
  9 10  1  0  0  0  0
 10 11  1  0  0  0  0
 11 12  1  0  0  0  0
 12 13  2  0  0  0  0
 12 14  2  0  0  0  0
 14 15  1  0  0  0  0
 15 16  1  0  0  0  0
 12 17  2  0  0  0  0
 17 18  1  0  0  0  0
 18 19  1  0  0  0  0
  1 20  1  0  0  0  0
  1 21  1  0  0  0  0
  1 22  1  0  0  0  0
  2 23  1  0  0  0  0
  2 24  1  0  0  0  0
  7 25  1  0  0  0  0
  7 26  1  0  0  0  0
  8 27  1  0  0  0  0
  8 28  1  0  0  0  0
  8 29  1  0  0  0  0
 10 30  1  0  0  0  0
 10 31  1  0  0  0  0
 15 32  1  0  0  0  0
 15 33  1  0  0  0  0
 16 34  1  0  0  0  0
 16 35  1  0  0  0  0
 16 36  1  0  0  0  0
 18 37  1  0  0  0  0
 18 38  1  0  0  0  0
 19 39  1  0  0  0  0
 19 40  1  0  0  0  0
 19 41  1  0  0  0  0
M  END
