 xtb: 6.7.1 (edcfbbe)
          04092505213D

 41 40  0     0  0            999 V2000
    4.8732    2.3970   -0.4556 C   0  0  0  0  0  0  0  0  0  0  0  0
    3.4284    1.9403   -0.4510 C   0  0  0  0  0  0  0  0  0  0  0  0
    3.3713    0.6539    0.1959 O   0  0  0  0  0  0  0  0  0  0  0  0
    2.0089    0.0873    0.7826 P   0  0  0  0  0  0  0  0  0  0  0  0
    1.0433    1.3508    1.9277 S   0  0  0  0  0  0  0  0  0  0  0  0
    2.4546   -1.2130    1.5510 O   0  0  0  0  0  0  0  0  0  0  0  0
    3.6705   -1.9678    1.3021 C   0  0  0  0  0  0  0  0  0  0  0  0
    3.6694   -2.6636   -0.0427 C   0  0  0  0  0  0  0  0  0  0  0  0
    0.9976   -0.5773   -0.9902 S   0  0  0  0  0  0  0  0  0  0  0  0
   -0.0559   -1.8502   -0.2528 C   0  0  0  0  0  0  0  0  0  0  0  0
   -1.2665   -1.2175    0.9488 S   0  0  0  0  0  0  0  0  0  0  0  0
   -2.3085    0.0252   -0.3888 P   0  0  0  0  0  0  0  0  0  0  0  0
   -2.5191   -0.5941   -2.2396 S   0  0  0  0  0  0  0  0  0  0  0  0
   -1.5144    1.3748   -0.1650 O   0  0  0  0  0  0  0  0  0  0  0  0
   -1.7069    2.5352   -1.0055 C   0  0  0  0  0  0  0  0  0  0  0  0
   -0.5668    2.6564   -1.9968 C   0  0  0  0  0  0  0  0  0  0  0  0
   -3.6870    0.3532    0.3360 O   0  0  0  0  0  0  0  0  0  0  0  0
   -4.8688   -0.4430    0.1358 C   0  0  0  0  0  0  0  0  0  0  0  0
   -4.7364   -1.8202    0.7531 C   0  0  0  0  0  0  0  0  0  0  0  0
    5.2359    2.4981    0.5634 H   0  0  0  0  0  0  0  0  0  0  0  0
    5.4903    1.6748   -0.9818 H   0  0  0  0  0  0  0  0  0  0  0  0
    4.9398    3.3578   -0.9553 H   0  0  0  0  0  0  0  0  0  0  0  0
    3.0425    1.8248   -1.4678 H   0  0  0  0  0  0  0  0  0  0  0  0
    2.7892    2.6368    0.1027 H   0  0  0  0  0  0  0  0  0  0  0  0
    4.5159   -1.2837    1.3840 H   0  0  0  0  0  0  0  0  0  0  0  0
    3.6878   -2.6824    2.1266 H   0  0  0  0  0  0  0  0  0  0  0  0
    4.5910   -3.2289   -0.1422 H   0  0  0  0  0  0  0  0  0  0  0  0
    2.8283   -3.3469   -0.1273 H   0  0  0  0  0  0  0  0  0  0  0  0
    3.6149   -1.9345   -0.8478 H   0  0  0  0  0  0  0  0  0  0  0  0
    0.5492   -2.5738    0.2876 H   0  0  0  0  0  0  0  0  0  0  0  0
   -0.5814   -2.3131   -1.0880 H   0  0  0  0  0  0  0  0  0  0  0  0
   -2.6698    2.4538   -1.5180 H   0  0  0  0  0  0  0  0  0  0  0  0
   -1.7272    3.3784   -0.3129 H   0  0  0  0  0  0  0  0  0  0  0  0
   -0.5583    1.7995   -2.6676 H   0  0  0  0  0  0  0  0  0  0  0  0
   -0.6895    3.5655   -2.5761 H   0  0  0  0  0  0  0  0  0  0  0  0
    0.3798    2.6923   -1.4627 H   0  0  0  0  0  0  0  0  0  0  0  0
   -5.6600    0.1393    0.6098 H   0  0  0  0  0  0  0  0  0  0  0  0
   -5.0537   -0.5201   -0.9407 H   0  0  0  0  0  0  0  0  0  0  0  0
   -5.6867   -2.3393    0.6809 H   0  0  0  0  0  0  0  0  0  0  0  0
   -3.9778   -2.3938    0.2219 H   0  0  0  0  0  0  0  0  0  0  0  0
   -4.4457   -1.7393    1.7977 H   0  0  0  0  0  0  0  0  0  0  0  0
  1  2  1  0  0  0  0
  2  3  1  0  0  0  0
  3  4  2  0  0  0  0
  4  5  2  0  0  0  0
  4  6  2  0  0  0  0
  6  7  1  0  0  0  0
  7  8  1  0  0  0  0
  4  9  1  0  0  0  0
  9 10  1  0  0  0  0
 10 11  1  0  0  0  0
 11 12  1  0  0  0  0
 12 13  2  0  0  0  0
 12 14  2  0  0  0  0
 14 15  1  0  0  0  0
 15 16  1  0  0  0  0
 12 17  2  0  0  0  0
 17 18  1  0  0  0  0
 18 19  1  0  0  0  0
  1 20  1  0  0  0  0
  1 21  1  0  0  0  0
  1 22  1  0  0  0  0
  2 23  1  0  0  0  0
  2 24  1  0  0  0  0
  7 25  1  0  0  0  0
  7 26  1  0  0  0  0
  8 27  1  0  0  0  0
  8 28  1  0  0  0  0
  8 29  1  0  0  0  0
 10 30  1  0  0  0  0
 10 31  1  0  0  0  0
 15 32  1  0  0  0  0
 15 33  1  0  0  0  0
 16 34  1  0  0  0  0
 16 35  1  0  0  0  0
 16 36  1  0  0  0  0
 18 37  1  0  0  0  0
 18 38  1  0  0  0  0
 19 39  1  0  0  0  0
 19 40  1  0  0  0  0
 19 41  1  0  0  0  0
M  END
