 xtb: 6.7.1 (edcfbbe)
          04092514013D

 41 40  0     0  0            999 V2000
    5.5795    0.0118   -0.6275 C   0  0  0  0  0  0  0  0  0  0  0  0
    4.5385   -0.8175    0.1005 C   0  0  0  0  0  0  0  0  0  0  0  0
    3.4568    0.0173    0.5660 O   0  0  0  0  0  0  0  0  0  0  0  0
    2.0586    0.1194   -0.1856 P   0  0  0  0  0  0  0  0  0  0  0  0
    2.1273    0.4403   -2.1223 S   0  0  0  0  0  0  0  0  0  0  0  0
    1.3222    1.2115    0.6891 O   0  0  0  0  0  0  0  0  0  0  0  0
    1.3213    2.6069    0.3342 C   0  0  0  0  0  0  0  0  0  0  0  0
    2.6722    3.2473    0.5720 C   0  0  0  0  0  0  0  0  0  0  0  0
    1.0996   -1.6523    0.4296 S   0  0  0  0  0  0  0  0  0  0  0  0
   -0.1273   -1.8681   -0.9112 C   0  0  0  0  0  0  0  0  0  0  0  0
   -1.8162   -2.0486   -0.2997 S   0  0  0  0  0  0  0  0  0  0  0  0
   -2.2446    0.0023    0.0687 P   0  0  0  0  0  0  0  0  0  0  0  0
   -1.6774    1.2612   -1.3164 S   0  0  0  0  0  0  0  0  0  0  0  0
   -1.5771    0.3441    1.4563 O   0  0  0  0  0  0  0  0  0  0  0  0
   -1.9056   -0.3520    2.6873 C   0  0  0  0  0  0  0  0  0  0  0  0
   -0.7362   -0.1882    3.6352 C   0  0  0  0  0  0  0  0  0  0  0  0
   -3.7905   -0.0191    0.4441 O   0  0  0  0  0  0  0  0  0  0  0  0
   -4.8636    0.1746   -0.4967 C   0  0  0  0  0  0  0  0  0  0  0  0
   -5.0003   -0.9660   -1.4839 C   0  0  0  0  0  0  0  0  0  0  0  0
    6.4140   -0.6253   -0.9032 H   0  0  0  0  0  0  0  0  0  0  0  0
    5.1524    0.4448   -1.5296 H   0  0  0  0  0  0  0  0  0  0  0  0
    5.9373    0.8122    0.0142 H   0  0  0  0  0  0  0  0  0  0  0  0
    4.9530   -1.2697    1.0035 H   0  0  0  0  0  0  0  0  0  0  0  0
    4.1406   -1.6009   -0.5504 H   0  0  0  0  0  0  0  0  0  0  0  0
    1.0212    2.6990   -0.7157 H   0  0  0  0  0  0  0  0  0  0  0  0
    0.5446    3.0381    0.9676 H   0  0  0  0  0  0  0  0  0  0  0  0
    3.4122    2.8083   -0.0959 H   0  0  0  0  0  0  0  0  0  0  0  0
    2.6026    4.3121    0.3714 H   0  0  0  0  0  0  0  0  0  0  0  0
    2.9869    3.0902    1.6002 H   0  0  0  0  0  0  0  0  0  0  0  0
    0.1050   -2.7940   -1.4312 H   0  0  0  0  0  0  0  0  0  0  0  0
   -0.0645   -1.0114   -1.5879 H   0  0  0  0  0  0  0  0  0  0  0  0
   -2.8170    0.0976    3.0861 H   0  0  0  0  0  0  0  0  0  0  0  0
   -2.0923   -1.4048    2.4563 H   0  0  0  0  0  0  0  0  0  0  0  0
   -0.5558    0.8659    3.8265 H   0  0  0  0  0  0  0  0  0  0  0  0
   -0.9609   -0.6917    4.5697 H   0  0  0  0  0  0  0  0  0  0  0  0
    0.1615   -0.6209    3.1999 H   0  0  0  0  0  0  0  0  0  0  0  0
   -5.7469    0.2582    0.1390 H   0  0  0  0  0  0  0  0  0  0  0  0
   -4.6926    1.1188   -1.0219 H   0  0  0  0  0  0  0  0  0  0  0  0
   -5.1100   -1.9140   -0.9643 H   0  0  0  0  0  0  0  0  0  0  0  0
   -5.8765   -0.7909   -2.1011 H   0  0  0  0  0  0  0  0  0  0  0  0
   -4.1228   -1.0146   -2.1265 H   0  0  0  0  0  0  0  0  0  0  0  0
  1  2  1  0  0  0  0
  2  3  1  0  0  0  0
  3  4  2  0  0  0  0
  4  5  2  0  0  0  0
  4  6  2  0  0  0  0
  6  7  1  0  0  0  0
  7  8  1  0  0  0  0
  4  9  1  0  0  0  0
  9 10  1  0  0  0  0
 10 11  1  0  0  0  0
 11 12  1  0  0  0  0
 12 13  2  0  0  0  0
 12 14  2  0  0  0  0
 14 15  1  0  0  0  0
 15 16  1  0  0  0  0
 12 17  2  0  0  0  0
 17 18  1  0  0  0  0
 18 19  1  0  0  0  0
  1 20  1  0  0  0  0
  1 21  1  0  0  0  0
  1 22  1  0  0  0  0
  2 23  1  0  0  0  0
  2 24  1  0  0  0  0
  7 25  1  0  0  0  0
  7 26  1  0  0  0  0
  8 27  1  0  0  0  0
  8 28  1  0  0  0  0
  8 29  1  0  0  0  0
 10 30  1  0  0  0  0
 10 31  1  0  0  0  0
 15 32  1  0  0  0  0
 15 33  1  0  0  0  0
 16 34  1  0  0  0  0
 16 35  1  0  0  0  0
 16 36  1  0  0  0  0
 18 37  1  0  0  0  0
 18 38  1  0  0  0  0
 19 39  1  0  0  0  0
 19 40  1  0  0  0  0
 19 41  1  0  0  0  0
M  END
