  21
 
 C         -2.6401206528       -0.7322916649        0.7067051884
 C         -1.8661359299       -0.4710308443       -0.5878077854
 C         -0.3995744898       -0.2921966231       -0.3039765248
 C          0.4100042246       -1.4195331163       -0.2360704025
 C          1.7575355204       -1.3233878968        0.0581219377
 C          2.3160321009       -0.0789077362        0.2888581270
 C          1.5193238867        1.0496848991        0.2233626210
 C          0.1629985802        0.9647544424       -0.0671859893
 C         -0.6579381432        2.2188555693       -0.1334234866
 H         -3.6992805213       -0.8590668177        0.4962664761
 H         -2.5205102843        0.0964992347        1.4004004240
 H         -2.2708515562       -1.6336062083        1.1907454874
 H         -2.2725052582        0.4110023319       -1.0818760489
 H         -2.0003867908       -1.3237764547       -1.2566356570
 H         -0.0279663094       -2.3908390745       -0.4196380354
 H          2.3673986990       -2.2134909683        0.1052463015
 H          3.3674046757        0.0137900442        0.5181074956
 H          1.9593669314        2.0205669627        0.4034905220
 H         -1.0242014198        2.3818765312       -1.1461197332
 H         -1.5171672555        2.1598524963        0.5310342027
 H         -0.0581183995        3.0785577809        0.1535793650
          21
        -25.38532641
 C         -2.6353599196       -0.6880925640        0.7488877173
 C         -1.8780375178       -0.4495026617       -0.5598992552
 C         -0.4040033395       -0.2940729183       -0.3015302456
 C          0.3908609898       -1.4325995178       -0.2550520055
 C          1.7445892007       -1.3565360944        0.0163148488
 C          2.3238657385       -0.1214888685        0.2457955743
 C          1.5418683787        1.0184832567        0.2009899457
 C          0.1800479026        0.9538456551       -0.0671637379
 C         -0.6251193555        2.2190940344       -0.1132486866
 H         -2.2728969736       -1.5915689775        1.2338789316
 H         -3.6995409156       -0.7992564355        0.5562432782
 H         -2.4916069905        0.1437788412        1.4341384846
 H         -2.2767987601        0.4362216403       -1.0537010893
 H         -2.0381475223       -1.3045616475       -1.2200628613
 H         -0.0631990704       -2.3967012842       -0.4373388336
 H          2.3433366158       -2.2548839736        0.0469251164
 H          3.3801390991       -0.0450855421        0.4577960548
 H          1.9983311475        1.9820198388        0.3795575103
 H         -0.0066789779        3.0711107522        0.1567220768
 H         -1.0171258404        2.3851511088       -1.1160858385
 H         -1.4672521980        2.1716680394        0.5737379634
