 xtb: 6.7.1 (edcfbbe)
          04092505213D

 41 40  0     0  0            999 V2000
    4.2467    1.2483   -2.4233 C   0  0  0  0  0  0  0  0  0  0  0  0
    4.4770    0.6920   -1.0326 C   0  0  0  0  0  0  0  0  0  0  0  0
    3.5079    1.2408   -0.1046 O   0  0  0  0  0  0  0  0  0  0  0  0
    2.2984    0.4151    0.4965 P   0  0  0  0  0  0  0  0  0  0  0  0
    1.3482    1.5254    1.7892 S   0  0  0  0  0  0  0  0  0  0  0  0
    2.9323   -0.9325    1.0768 O   0  0  0  0  0  0  0  0  0  0  0  0
    2.9272   -1.2961    2.4740 C   0  0  0  0  0  0  0  0  0  0  0  0
    1.9641   -2.4379    2.7304 C   0  0  0  0  0  0  0  0  0  0  0  0
    1.3269   -0.3136   -1.2452 S   0  0  0  0  0  0  0  0  0  0  0  0
    0.3887   -1.6854   -0.5185 C   0  0  0  0  0  0  0  0  0  0  0  0
   -0.8650   -1.1555    0.6742 S   0  0  0  0  0  0  0  0  0  0  0  0
   -2.1211   -0.1319   -0.7117 P   0  0  0  0  0  0  0  0  0  0  0  0
   -2.1458   -0.8873   -2.5133 S   0  0  0  0  0  0  0  0  0  0  0  0
   -1.6952    1.3835   -0.7050 O   0  0  0  0  0  0  0  0  0  0  0  0
   -1.8086    2.2472    0.4529 C   0  0  0  0  0  0  0  0  0  0  0  0
   -3.0967    3.0402    0.4023 C   0  0  0  0  0  0  0  0  0  0  0  0
   -3.5130   -0.1140    0.0516 O   0  0  0  0  0  0  0  0  0  0  0  0
   -4.2840   -1.3245    0.2097 C   0  0  0  0  0  0  0  0  0  0  0  0
   -5.6913   -0.9298    0.6080 C   0  0  0  0  0  0  0  0  0  0  0  0
    5.0228    0.8809   -3.0871 H   0  0  0  0  0  0  0  0  0  0  0  0
    3.2759    0.9357   -2.8031 H   0  0  0  0  0  0  0  0  0  0  0  0
    4.2780    2.3341   -2.3991 H   0  0  0  0  0  0  0  0  0  0  0  0
    5.4455    1.0042   -0.6385 H   0  0  0  0  0  0  0  0  0  0  0  0
    4.4067   -0.3979   -1.0214 H   0  0  0  0  0  0  0  0  0  0  0  0
    3.9558   -1.5860    2.6947 H   0  0  0  0  0  0  0  0  0  0  0  0
    2.6558   -0.4174    3.0674 H   0  0  0  0  0  0  0  0  0  0  0  0
    2.2155   -3.2938    2.1098 H   0  0  0  0  0  0  0  0  0  0  0  0
    2.0336   -2.7258    3.7744 H   0  0  0  0  0  0  0  0  0  0  0  0
    0.9417   -2.1269    2.5204 H   0  0  0  0  0  0  0  0  0  0  0  0
    1.0636   -2.3602    0.0009 H   0  0  0  0  0  0  0  0  0  0  0  0
   -0.1033   -2.1773   -1.3587 H   0  0  0  0  0  0  0  0  0  0  0  0
   -1.7432    1.6422    1.3614 H   0  0  0  0  0  0  0  0  0  0  0  0
   -0.9330    2.8975    0.3988 H   0  0  0  0  0  0  0  0  0  0  0  0
   -3.1493    3.6024   -0.5261 H   0  0  0  0  0  0  0  0  0  0  0  0
   -3.9526    2.3730    0.4596 H   0  0  0  0  0  0  0  0  0  0  0  0
   -3.1184    3.7282    1.2416 H   0  0  0  0  0  0  0  0  0  0  0  0
   -4.2719   -1.8697   -0.7397 H   0  0  0  0  0  0  0  0  0  0  0  0
   -3.8056   -1.9342    0.9809 H   0  0  0  0  0  0  0  0  0  0  0  0
   -6.1429   -0.3196   -0.1692 H   0  0  0  0  0  0  0  0  0  0  0  0
   -6.2850   -1.8271    0.7478 H   0  0  0  0  0  0  0  0  0  0  0  0
   -5.6712   -0.3641    1.5351 H   0  0  0  0  0  0  0  0  0  0  0  0
  1  2  1  0  0  0  0
  2  3  1  0  0  0  0
  3  4  2  0  0  0  0
  4  5  2  0  0  0  0
  4  6  2  0  0  0  0
  6  7  1  0  0  0  0
  7  8  1  0  0  0  0
  4  9  1  0  0  0  0
  9 10  1  0  0  0  0
 10 11  1  0  0  0  0
 11 12  1  0  0  0  0
 12 13  2  0  0  0  0
 12 14  2  0  0  0  0
 14 15  1  0  0  0  0
 15 16  1  0  0  0  0
 12 17  2  0  0  0  0
 17 18  1  0  0  0  0
 18 19  1  0  0  0  0
  1 20  1  0  0  0  0
  1 21  1  0  0  0  0
  1 22  1  0  0  0  0
  2 23  1  0  0  0  0
  2 24  1  0  0  0  0
  7 25  1  0  0  0  0
  7 26  1  0  0  0  0
  8 27  1  0  0  0  0
  8 28  1  0  0  0  0
  8 29  1  0  0  0  0
 10 30  1  0  0  0  0
 10 31  1  0  0  0  0
 15 32  1  0  0  0  0
 15 33  1  0  0  0  0
 16 34  1  0  0  0  0
 16 35  1  0  0  0  0
 16 36  1  0  0  0  0
 18 37  1  0  0  0  0
 18 38  1  0  0  0  0
 19 39  1  0  0  0  0
 19 40  1  0  0  0  0
 19 41  1  0  0  0  0
M  END
