 xtb: 6.7.1 (edcfbbe)
          04092514003D

 41 40  0     0  0            999 V2000
    4.4082   -0.7680   -2.6929 C   0  0  0  0  0  0  0  0  0  0  0  0
    4.9009   -0.7599   -1.2606 C   0  0  0  0  0  0  0  0  0  0  0  0
    3.8497   -1.0327   -0.3161 O   0  0  0  0  0  0  0  0  0  0  0  0
    2.6858   -0.0046    0.0308 P   0  0  0  0  0  0  0  0  0  0  0  0
    3.1611    1.8903    0.0312 S   0  0  0  0  0  0  0  0  0  0  0  0
    2.2333   -0.4953    1.4596 O   0  0  0  0  0  0  0  0  0  0  0  0
    1.9335   -1.8841    1.7509 C   0  0  0  0  0  0  0  0  0  0  0  0
    1.0759   -1.9185    2.9986 C   0  0  0  0  0  0  0  0  0  0  0  0
    1.0990   -0.5671   -1.2797 S   0  0  0  0  0  0  0  0  0  0  0  0
    0.0095    0.8249   -0.8860 C   0  0  0  0  0  0  0  0  0  0  0  0
   -0.8178    0.6709    0.7255 S   0  0  0  0  0  0  0  0  0  0  0  0
   -2.8203    0.2339    0.1058 P   0  0  0  0  0  0  0  0  0  0  0  0
   -3.1674    0.3006   -1.8264 S   0  0  0  0  0  0  0  0  0  0  0  0
   -3.7181    1.1723    1.0137 O   0  0  0  0  0  0  0  0  0  0  0  0
   -4.1631    2.4733    0.5940 C   0  0  0  0  0  0  0  0  0  0  0  0
   -3.0315    3.4798    0.5262 C   0  0  0  0  0  0  0  0  0  0  0  0
   -3.2105   -1.1102    0.8454 O   0  0  0  0  0  0  0  0  0  0  0  0
   -3.0863   -2.4075    0.2355 C   0  0  0  0  0  0  0  0  0  0  0  0
   -1.6448   -2.8700    0.1679 C   0  0  0  0  0  0  0  0  0  0  0  0
    5.2591   -0.6725   -3.3603 H   0  0  0  0  0  0  0  0  0  0  0  0
    3.8827   -1.6944   -2.9092 H   0  0  0  0  0  0  0  0  0  0  0  0
    3.7324    0.0687   -2.8618 H   0  0  0  0  0  0  0  0  0  0  0  0
    5.3475    0.2076   -1.0113 H   0  0  0  0  0  0  0  0  0  0  0  0
    5.6224   -1.5585   -1.0803 H   0  0  0  0  0  0  0  0  0  0  0  0
    1.4154   -2.3178    0.8901 H   0  0  0  0  0  0  0  0  0  0  0  0
    2.8814   -2.4050    1.8980 H   0  0  0  0  0  0  0  0  0  0  0  0
    0.1541   -1.3649    2.8360 H   0  0  0  0  0  0  0  0  0  0  0  0
    0.8449   -2.9502    3.2450 H   0  0  0  0  0  0  0  0  0  0  0  0
    1.6084   -1.4613    3.8275 H   0  0  0  0  0  0  0  0  0  0  0  0
   -0.7486    0.8657   -1.6717 H   0  0  0  0  0  0  0  0  0  0  0  0
    0.6100    1.7346   -0.8609 H   0  0  0  0  0  0  0  0  0  0  0  0
   -4.6518    2.3776   -0.3811 H   0  0  0  0  0  0  0  0  0  0  0  0
   -4.8998    2.7520    1.3491 H   0  0  0  0  0  0  0  0  0  0  0  0
   -2.3428    3.2182   -0.2764 H   0  0  0  0  0  0  0  0  0  0  0  0
   -3.4414    4.4652    0.3278 H   0  0  0  0  0  0  0  0  0  0  0  0
   -2.4855    3.5002    1.4661 H   0  0  0  0  0  0  0  0  0  0  0  0
   -3.6841   -3.0553    0.8788 H   0  0  0  0  0  0  0  0  0  0  0  0
   -3.5297   -2.3694   -0.7648 H   0  0  0  0  0  0  0  0  0  0  0  0
   -1.0797   -2.2420   -0.5206 H   0  0  0  0  0  0  0  0  0  0  0  0
   -1.1909   -2.8205    1.1541 H   0  0  0  0  0  0  0  0  0  0  0  0
   -1.6144   -3.8940   -0.1905 H   0  0  0  0  0  0  0  0  0  0  0  0
  1  2  1  0  0  0  0
  2  3  1  0  0  0  0
  3  4  2  0  0  0  0
  4  5  2  0  0  0  0
  4  6  2  0  0  0  0
  6  7  1  0  0  0  0
  7  8  1  0  0  0  0
  4  9  1  0  0  0  0
  9 10  1  0  0  0  0
 10 11  1  0  0  0  0
 11 12  1  0  0  0  0
 12 13  2  0  0  0  0
 12 14  2  0  0  0  0
 14 15  1  0  0  0  0
 15 16  1  0  0  0  0
 12 17  2  0  0  0  0
 17 18  1  0  0  0  0
 18 19  1  0  0  0  0
  1 20  1  0  0  0  0
  1 21  1  0  0  0  0
  1 22  1  0  0  0  0
  2 23  1  0  0  0  0
  2 24  1  0  0  0  0
  7 25  1  0  0  0  0
  7 26  1  0  0  0  0
  8 27  1  0  0  0  0
  8 28  1  0  0  0  0
  8 29  1  0  0  0  0
 10 30  1  0  0  0  0
 10 31  1  0  0  0  0
 15 32  1  0  0  0  0
 15 33  1  0  0  0  0
 16 34  1  0  0  0  0
 16 35  1  0  0  0  0
 16 36  1  0  0  0  0
 18 37  1  0  0  0  0
 18 38  1  0  0  0  0
 19 39  1  0  0  0  0
 19 40  1  0  0  0  0
 19 41  1  0  0  0  0
M  END
