 xtb: 6.7.1 (edcfbbe)
          04092505203D

 41 40  0     0  0            999 V2000
    4.3744    2.1272   -0.9480 C   0  0  0  0  0  0  0  0  0  0  0  0
    4.6342    0.6435   -0.7859 C   0  0  0  0  0  0  0  0  0  0  0  0
    3.4276   -0.1333   -0.8983 O   0  0  0  0  0  0  0  0  0  0  0  0
    2.2806   -0.0827    0.1977 P   0  0  0  0  0  0  0  0  0  0  0  0
    2.9041    0.0317    2.0554 S   0  0  0  0  0  0  0  0  0  0  0  0
    1.4128   -1.3536   -0.1726 O   0  0  0  0  0  0  0  0  0  0  0  0
    1.6129   -2.6424    0.4373 C   0  0  0  0  0  0  0  0  0  0  0  0
    2.9480   -3.2457    0.0569 C   0  0  0  0  0  0  0  0  0  0  0  0
    0.9786    1.4335   -0.4724 S   0  0  0  0  0  0  0  0  0  0  0  0
    0.0595    1.6111    1.0801 C   0  0  0  0  0  0  0  0  0  0  0  0
   -0.8897    0.1300    1.5407 S   0  0  0  0  0  0  0  0  0  0  0  0
   -2.0387   -0.1463   -0.2248 P   0  0  0  0  0  0  0  0  0  0  0  0
   -1.3501   -1.1079   -1.7780 S   0  0  0  0  0  0  0  0  0  0  0  0
   -2.4566    1.3767   -0.4712 O   0  0  0  0  0  0  0  0  0  0  0  0
   -2.8068    1.8603   -1.7828 C   0  0  0  0  0  0  0  0  0  0  0  0
   -4.1921    1.3958   -2.1829 C   0  0  0  0  0  0  0  0  0  0  0  0
   -3.3076   -0.9147    0.3348 O   0  0  0  0  0  0  0  0  0  0  0  0
   -4.1419   -0.3928    1.4003 C   0  0  0  0  0  0  0  0  0  0  0  0
   -5.5642   -0.8503    1.1483 C   0  0  0  0  0  0  0  0  0  0  0  0
    3.7887    2.4969   -0.1073 H   0  0  0  0  0  0  0  0  0  0  0  0
    5.3216    2.6560   -0.9776 H   0  0  0  0  0  0  0  0  0  0  0  0
    3.8251    2.3158   -1.8671 H   0  0  0  0  0  0  0  0  0  0  0  0
    5.0872    0.4369    0.1892 H   0  0  0  0  0  0  0  0  0  0  0  0
    5.2700    0.2545   -1.5822 H   0  0  0  0  0  0  0  0  0  0  0  0
    1.5306   -2.5253    1.5234 H   0  0  0  0  0  0  0  0  0  0  0  0
    0.7756   -3.2358    0.0648 H   0  0  0  0  0  0  0  0  0  0  0  0
    3.0494   -3.2742   -1.0250 H   0  0  0  0  0  0  0  0  0  0  0  0
    3.7566   -2.6455    0.4731 H   0  0  0  0  0  0  0  0  0  0  0  0
    3.0135   -4.2533    0.4552 H   0  0  0  0  0  0  0  0  0  0  0  0
   -0.6137    2.4544    0.9549 H   0  0  0  0  0  0  0  0  0  0  0  0
    0.7576    1.7755    1.9016 H   0  0  0  0  0  0  0  0  0  0  0  0
   -2.7488    2.9457   -1.6923 H   0  0  0  0  0  0  0  0  0  0  0  0
   -2.0577    1.5056   -2.4974 H   0  0  0  0  0  0  0  0  0  0  0  0
   -4.4414    1.8028   -3.1576 H   0  0  0  0  0  0  0  0  0  0  0  0
   -4.2092    0.3075   -2.2392 H   0  0  0  0  0  0  0  0  0  0  0  0
   -4.9284    1.7276   -1.4553 H   0  0  0  0  0  0  0  0  0  0  0  0
   -3.7544   -0.7896    2.3413 H   0  0  0  0  0  0  0  0  0  0  0  0
   -4.0663    0.6973    1.4090 H   0  0  0  0  0  0  0  0  0  0  0  0
   -5.9303   -0.4482    0.2077 H   0  0  0  0  0  0  0  0  0  0  0  0
   -5.6006   -1.9348    1.1001 H   0  0  0  0  0  0  0  0  0  0  0  0
   -6.1977   -0.5045    1.9588 H   0  0  0  0  0  0  0  0  0  0  0  0
  1  2  1  0  0  0  0
  2  3  1  0  0  0  0
  3  4  2  0  0  0  0
  4  5  2  0  0  0  0
  4  6  2  0  0  0  0
  6  7  1  0  0  0  0
  7  8  1  0  0  0  0
  4  9  1  0  0  0  0
  9 10  1  0  0  0  0
 10 11  1  0  0  0  0
 11 12  1  0  0  0  0
 12 13  2  0  0  0  0
 12 14  1  0  0  0  0
 14 15  1  0  0  0  0
 15 16  1  0  0  0  0
 12 17  2  0  0  0  0
 17 18  1  0  0  0  0
 18 19  1  0  0  0  0
  1 20  1  0  0  0  0
  1 21  1  0  0  0  0
  1 22  1  0  0  0  0
  2 23  1  0  0  0  0
  2 24  1  0  0  0  0
  7 25  1  0  0  0  0
  7 26  1  0  0  0  0
  8 27  1  0  0  0  0
  8 28  1  0  0  0  0
  8 29  1  0  0  0  0
 10 30  1  0  0  0  0
 10 31  1  0  0  0  0
 15 32  1  0  0  0  0
 15 33  1  0  0  0  0
 16 34  1  0  0  0  0
 16 35  1  0  0  0  0
 16 36  1  0  0  0  0
 18 37  1  0  0  0  0
 18 38  1  0  0  0  0
 19 39  1  0  0  0  0
 19 40  1  0  0  0  0
 19 41  1  0  0  0  0
M  END
