 xtb: 6.7.1 (edcfbbe)
          04092505203D

 41 40  0     0  0            999 V2000
    4.5437    0.1521   -2.6834 C   0  0  0  0  0  0  0  0  0  0  0  0
    4.6829   -0.6604   -1.4133 C   0  0  0  0  0  0  0  0  0  0  0  0
    3.4062   -1.0830   -0.8848 O   0  0  0  0  0  0  0  0  0  0  0  0
    2.2362   -0.1097   -0.4471 P   0  0  0  0  0  0  0  0  0  0  0  0
    1.0818    0.5437   -1.9018 S   0  0  0  0  0  0  0  0  0  0  0  0
    3.0345    0.9982    0.3550 O   0  0  0  0  0  0  0  0  0  0  0  0
    2.4494    2.1804    0.9315 C   0  0  0  0  0  0  0  0  0  0  0  0
    2.1794    1.9750    2.4078 C   0  0  0  0  0  0  0  0  0  0  0  0
    1.2892   -1.3525    0.9728 S   0  0  0  0  0  0  0  0  0  0  0  0
    0.0335   -2.1146   -0.1120 C   0  0  0  0  0  0  0  0  0  0  0  0
   -1.6271   -2.0974    0.6055 S   0  0  0  0  0  0  0  0  0  0  0  0
   -2.1789   -0.0925    0.2445 P   0  0  0  0  0  0  0  0  0  0  0  0
   -1.0815    1.3849    0.9295 S   0  0  0  0  0  0  0  0  0  0  0  0
   -3.6820   -0.0564    0.7577 O   0  0  0  0  0  0  0  0  0  0  0  0
   -4.0263    0.3140    2.1035 C   0  0  0  0  0  0  0  0  0  0  0  0
   -3.5484   -0.7097    3.1129 C   0  0  0  0  0  0  0  0  0  0  0  0
   -2.3540   -0.1771   -1.3268 O   0  0  0  0  0  0  0  0  0  0  0  0
   -2.4466    0.9873   -2.1706 C   0  0  0  0  0  0  0  0  0  0  0  0
   -3.6837    1.8073   -1.8743 C   0  0  0  0  0  0  0  0  0  0  0  0
    3.9795   -0.4032   -3.4292 H   0  0  0  0  0  0  0  0  0  0  0  0
    4.0164    1.0830   -2.4775 H   0  0  0  0  0  0  0  0  0  0  0  0
    5.5295    0.3820   -3.0751 H   0  0  0  0  0  0  0  0  0  0  0  0
    5.2004   -0.0906   -0.6389 H   0  0  0  0  0  0  0  0  0  0  0  0
    5.2032   -1.6022   -1.5946 H   0  0  0  0  0  0  0  0  0  0  0  0
    3.1920    2.9638    0.7687 H   0  0  0  0  0  0  0  0  0  0  0  0
    1.5291    2.4306    0.3950 H   0  0  0  0  0  0  0  0  0  0  0  0
    1.8313    2.9090    2.8363 H   0  0  0  0  0  0  0  0  0  0  0  0
    1.4089    1.2203    2.5486 H   0  0  0  0  0  0  0  0  0  0  0  0
    3.0865    1.6559    2.9130 H   0  0  0  0  0  0  0  0  0  0  0  0
    0.2887   -3.1619   -0.2476 H   0  0  0  0  0  0  0  0  0  0  0  0
    0.0254   -1.5771   -1.0638 H   0  0  0  0  0  0  0  0  0  0  0  0
   -3.5886    1.2951    2.3154 H   0  0  0  0  0  0  0  0  0  0  0  0
   -5.1144    0.3872    2.0850 H   0  0  0  0  0  0  0  0  0  0  0  0
   -3.9223   -0.4476    4.0974 H   0  0  0  0  0  0  0  0  0  0  0  0
   -3.9015   -1.7013    2.8413 H   0  0  0  0  0  0  0  0  0  0  0  0
   -2.4591   -0.7233    3.1402 H   0  0  0  0  0  0  0  0  0  0  0  0
   -1.5374    1.5834   -2.0404 H   0  0  0  0  0  0  0  0  0  0  0  0
   -2.4619    0.5729   -3.1796 H   0  0  0  0  0  0  0  0  0  0  0  0
   -3.7658    2.6070   -2.6037 H   0  0  0  0  0  0  0  0  0  0  0  0
   -4.5692    1.1787   -1.9204 H   0  0  0  0  0  0  0  0  0  0  0  0
   -3.6102    2.2427   -0.8784 H   0  0  0  0  0  0  0  0  0  0  0  0
  1  2  1  0  0  0  0
  2  3  1  0  0  0  0
  3  4  2  0  0  0  0
  4  5  2  0  0  0  0
  4  6  2  0  0  0  0
  6  7  1  0  0  0  0
  7  8  1  0  0  0  0
  4  9  1  0  0  0  0
  9 10  1  0  0  0  0
 10 11  1  0  0  0  0
 11 12  1  0  0  0  0
 12 13  2  0  0  0  0
 12 14  2  0  0  0  0
 14 15  1  0  0  0  0
 15 16  1  0  0  0  0
 12 17  2  0  0  0  0
 17 18  1  0  0  0  0
 18 19  1  0  0  0  0
  1 20  1  0  0  0  0
  1 21  1  0  0  0  0
  1 22  1  0  0  0  0
  2 23  1  0  0  0  0
  2 24  1  0  0  0  0
  7 25  1  0  0  0  0
  7 26  1  0  0  0  0
  8 27  1  0  0  0  0
  8 28  1  0  0  0  0
  8 29  1  0  0  0  0
 10 30  1  0  0  0  0
 10 31  1  0  0  0  0
 15 32  1  0  0  0  0
 15 33  1  0  0  0  0
 16 34  1  0  0  0  0
 16 35  1  0  0  0  0
 16 36  1  0  0  0  0
 18 37  1  0  0  0  0
 18 38  1  0  0  0  0
 19 39  1  0  0  0  0
 19 40  1  0  0  0  0
 19 41  1  0  0  0  0
M  END
