38
 xtb: 6.7.1 (edcfbbe)
C            4.40902651119153        0.11914140311503       -2.24737275042541
C            4.19146396310304       -1.37565409663067       -2.24651257007647
O            2.84081309824193       -1.70652553382164       -1.77856948446560
C            2.64326683408412       -1.74360790537749       -0.45523628525268
O            3.51225694924875       -1.57096432227409        0.38070437672555
C            1.19448688819609       -2.02407942250630       -0.12277806555100
C            0.32473871464239       -0.77714069483655       -0.40022246314534
H            0.38811582280019       -0.50374451327991       -1.45537863174030
C            0.86506840181812        0.39451022880937        0.40363089828553
O            1.71685491975856        1.13230843181925       -0.06035864183129
O            0.37564724599483        0.46272073108979        1.63518859545548
C            0.89299622118858        1.52687095802111        2.50473044385092
C            2.18791798098902        1.09699950134272        3.15102181707790
S           -1.42344104455148       -1.25882617467702       -0.02739836451811
P           -2.43432010391678        0.59379770516211       -0.25917383384398
S           -1.69031915739069        1.79958607513292       -1.58413339583439
O           -3.94495549560729        0.06730604165939       -0.45029473070444
C           -4.37590102732325       -0.46920261414202       -1.73360635676696
O           -2.53998615702242        1.30504046061363        1.17463701016940
C           -2.97781396575495        0.57758278676897        2.36100403771079
H            4.40090389105578        0.52867346549798       -1.23419877471682
H            5.38488187252463        0.33122063051372       -2.69572138529766
H            3.64164772327682        0.62179647337696       -2.84292844461195
H            4.91578158033203       -1.90171978267961       -1.62035454134304
H            4.22121157985073       -1.78636723953271       -3.25676270921234
H            1.13501051669516       -2.30347525994727        0.93089242700205
H            0.83785957654893       -2.85043695106892       -0.74459308735953
H            1.00286450232911        2.43597916834075        1.90877119467932
H            0.09749123997008        1.66617368004609        3.23901762456623
H            2.04793467942222        0.17531214911425        3.72271223802455
H            2.97303101228803        0.94018842175183        2.40637649823863
H            2.51632115729326        1.88210989622113        3.83915830059909
H           -3.73762654840662       -1.30365524485950       -2.03673557535175
H           -4.35728305604342        0.31968944668537       -2.48930759808287
H           -5.39609457802477       -0.81835201891218       -1.57627331435169
H           -2.26864675486207       -0.22063417141783        2.59320589260372
H           -3.98035919257862        0.17119660986717        2.20901285192779
H           -2.98903056105397        1.31512717450458        3.16324818469602
