 xtb: 6.7.1 (edcfbbe)
          04092507313D

 38 37  0     0  0            999 V2000
    3.5600   -3.9743   -0.8466 C   0  0  0  0  0  0  0  0  0  0  0  0
    4.1840   -2.6621   -1.2939 C   0  0  0  0  0  0  0  0  0  0  0  0
    3.2116   -1.8377   -1.9680 O   0  0  0  0  0  0  0  0  0  0  0  0
    2.4408   -1.0576   -1.2441 C   0  0  0  0  0  0  0  0  0  0  0  0
    2.5025   -0.9492   -0.0361 O   0  0  0  0  0  0  0  0  0  0  0  0
    1.4658   -0.2751   -2.0985 C   0  0  0  0  0  0  0  0  0  0  0  0
    0.4151    0.3670   -1.2034 C   0  0  0  0  0  0  0  0  0  0  0  0
   -0.2002    1.0737   -1.7706 H   0  0  0  0  0  0  0  0  0  0  0  0
    1.0969    1.1452   -0.0894 C   0  0  0  0  0  0  0  0  0  0  0  0
    2.0089    1.9098   -0.3088 O   0  0  0  0  0  0  0  0  0  0  0  0
    0.5488    0.9370    1.0900 O   0  0  0  0  0  0  0  0  0  0  0  0
    1.0926    1.6363    2.2261 C   0  0  0  0  0  0  0  0  0  0  0  0
    0.4178    2.9844    2.4119 C   0  0  0  0  0  0  0  0  0  0  0  0
   -0.6999   -0.9118   -0.5351 S   0  0  0  0  0  0  0  0  0  0  0  0
   -2.1125    0.3735    0.3981 P   0  0  0  0  0  0  0  0  0  0  0  0
   -2.2026    2.2084   -0.2774 S   0  0  0  0  0  0  0  0  0  0  0  0
   -3.4713   -0.4574    0.2116 O   0  0  0  0  0  0  0  0  0  0  0  0
   -4.0679   -0.6215   -1.0794 C   0  0  0  0  0  0  0  0  0  0  0  0
   -1.9654    0.2918    1.9684 O   0  0  0  0  0  0  0  0  0  0  0  0
   -1.8760   -0.9649    2.6666 C   0  0  0  0  0  0  0  0  0  0  0  0
    3.1306   -4.4935   -1.6987 H   0  0  0  0  0  0  0  0  0  0  0  0
    4.3230   -4.5981   -0.3930 H   0  0  0  0  0  0  0  0  0  0  0  0
    2.7768   -3.7849   -0.1160 H   0  0  0  0  0  0  0  0  0  0  0  0
    4.9647   -2.8234   -2.0370 H   0  0  0  0  0  0  0  0  0  0  0  0
    4.5795   -2.1068   -0.4386 H   0  0  0  0  0  0  0  0  0  0  0  0
    1.0131   -0.9323   -2.8398 H   0  0  0  0  0  0  0  0  0  0  0  0
    2.0273    0.5078   -2.6134 H   0  0  0  0  0  0  0  0  0  0  0  0
    0.9016    0.9744    3.0711 H   0  0  0  0  0  0  0  0  0  0  0  0
    2.1679    1.7513    2.0645 H   0  0  0  0  0  0  0  0  0  0  0  0
   -0.6584    2.8537    2.5021 H   0  0  0  0  0  0  0  0  0  0  0  0
    0.8005    3.4571    3.3100 H   0  0  0  0  0  0  0  0  0  0  0  0
    0.6182    3.6261    1.5564 H   0  0  0  0  0  0  0  0  0  0  0  0
   -4.1550    0.3455   -1.5773 H   0  0  0  0  0  0  0  0  0  0  0  0
   -5.0525   -1.0434   -0.8950 H   0  0  0  0  0  0  0  0  0  0  0  0
   -3.4641   -1.2991   -1.6826 H   0  0  0  0  0  0  0  0  0  0  0  0
   -0.9713   -1.4915    2.3620 H   0  0  0  0  0  0  0  0  0  0  0  0
   -2.7531   -1.5736    2.4560 H   0  0  0  0  0  0  0  0  0  0  0  0
   -1.8325   -0.7020    3.7203 H   0  0  0  0  0  0  0  0  0  0  0  0
  1  2  1  0  0  0  0
  2  3  1  0  0  0  0
  3  4  4  0  0  0  0
  4  5  2  0  0  0  0
  4  6  1  0  0  0  0
  6  7  1  0  0  0  0
  7  8  1  0  0  0  0
  7  9  1  0  0  0  0
  9 10  2  0  0  0  0
  9 11  1  0  0  0  0
 11 12  1  0  0  0  0
 12 13  1  0  0  0  0
  7 14  1  0  0  0  0
 14 15  1  0  0  0  0
 15 16  2  0  0  0  0
 15 17  1  0  0  0  0
 17 18  1  0  0  0  0
 15 19  2  0  0  0  0
 19 20  1  0  0  0  0
  1 21  1  0  0  0  0
  1 22  1  0  0  0  0
  1 23  1  0  0  0  0
  2 24  1  0  0  0  0
  2 25  1  0  0  0  0
  6 26  1  0  0  0  0
  6 27  1  0  0  0  0
 12 28  1  0  0  0  0
 12 29  1  0  0  0  0
 13 30  1  0  0  0  0
 13 31  1  0  0  0  0
 13 32  1  0  0  0  0
 18 33  1  0  0  0  0
 18 34  1  0  0  0  0
 18 35  1  0  0  0  0
 20 36  1  0  0  0  0
 20 37  1  0  0  0  0
 20 38  1  0  0  0  0
M  END
