 xtb: 6.7.1 (edcfbbe)
          04092505213D

 41 40  0     0  0            999 V2000
    1.9677   -1.9474   -2.4080 C   0  0  0  0  0  0  0  0  0  0  0  0
    2.4856   -0.5317   -2.5538 C   0  0  0  0  0  0  0  0  0  0  0  0
    2.0159    0.3569   -1.5091 O   0  0  0  0  0  0  0  0  0  0  0  0
    2.2174    0.1453    0.0390 P   0  0  0  0  0  0  0  0  0  0  0  0
    2.1240    1.8460    1.0072 S   0  0  0  0  0  0  0  0  0  0  0  0
    3.6242   -0.6025    0.0522 O   0  0  0  0  0  0  0  0  0  0  0  0
    4.1768   -1.3222    1.1682 C   0  0  0  0  0  0  0  0  0  0  0  0
    4.4632   -0.4326    2.3604 C   0  0  0  0  0  0  0  0  0  0  0  0
    0.8609   -1.3689    0.7070 S   0  0  0  0  0  0  0  0  0  0  0  0
   -0.0716   -0.4402    1.9582 C   0  0  0  0  0  0  0  0  0  0  0  0
   -1.8620   -0.6560    1.8075 S   0  0  0  0  0  0  0  0  0  0  0  0
   -2.1607    0.1407   -0.1169 P   0  0  0  0  0  0  0  0  0  0  0  0
   -0.9685    1.5784   -0.7482 S   0  0  0  0  0  0  0  0  0  0  0  0
   -3.7214    0.4418   -0.1444 O   0  0  0  0  0  0  0  0  0  0  0  0
   -4.4472    1.2040    0.8367 C   0  0  0  0  0  0  0  0  0  0  0  0
   -3.8183    2.5521    1.1214 C   0  0  0  0  0  0  0  0  0  0  0  0
   -2.0839   -1.1706   -1.0058 O   0  0  0  0  0  0  0  0  0  0  0  0
   -1.9072   -1.1223   -2.4334 C   0  0  0  0  0  0  0  0  0  0  0  0
   -3.1637   -0.6486   -3.1331 C   0  0  0  0  0  0  0  0  0  0  0  0
    2.2799   -2.5268   -3.2713 H   0  0  0  0  0  0  0  0  0  0  0  0
    2.3676   -2.4095   -1.5073 H   0  0  0  0  0  0  0  0  0  0  0  0
    0.8826   -1.9529   -2.3473 H   0  0  0  0  0  0  0  0  0  0  0  0
    2.1130   -0.0580   -3.4638 H   0  0  0  0  0  0  0  0  0  0  0  0
    3.5771   -0.5119   -2.5452 H   0  0  0  0  0  0  0  0  0  0  0  0
    3.4831   -2.1234    1.4395 H   0  0  0  0  0  0  0  0  0  0  0  0
    5.0962   -1.7500    0.7640 H   0  0  0  0  0  0  0  0  0  0  0  0
    3.5375   -0.0233    2.7606 H   0  0  0  0  0  0  0  0  0  0  0  0
    4.9586   -1.0145    3.1308 H   0  0  0  0  0  0  0  0  0  0  0  0
    5.1018    0.3972    2.0681 H   0  0  0  0  0  0  0  0  0  0  0  0
    0.1939    0.6179    1.8628 H   0  0  0  0  0  0  0  0  0  0  0  0
    0.1830   -0.8209    2.9444 H   0  0  0  0  0  0  0  0  0  0  0  0
   -5.4392    1.3129    0.3946 H   0  0  0  0  0  0  0  0  0  0  0  0
   -4.5114    0.6063    1.7502 H   0  0  0  0  0  0  0  0  0  0  0  0
   -3.6996    3.1196    0.2011 H   0  0  0  0  0  0  0  0  0  0  0  0
   -4.4485    3.1081    1.8079 H   0  0  0  0  0  0  0  0  0  0  0  0
   -2.8343    2.4218    1.5714 H   0  0  0  0  0  0  0  0  0  0  0  0
   -1.0686   -0.4531   -2.6580 H   0  0  0  0  0  0  0  0  0  0  0  0
   -1.6561   -2.1494   -2.7033 H   0  0  0  0  0  0  0  0  0  0  0  0
   -3.3722    0.3827   -2.8512 H   0  0  0  0  0  0  0  0  0  0  0  0
   -3.0217   -0.7029   -4.2079 H   0  0  0  0  0  0  0  0  0  0  0  0
   -4.0084   -1.2680   -2.8445 H   0  0  0  0  0  0  0  0  0  0  0  0
  1  2  1  0  0  0  0
  2  3  1  0  0  0  0
  3  4  2  0  0  0  0
  4  5  2  0  0  0  0
  4  6  2  0  0  0  0
  6  7  1  0  0  0  0
  7  8  1  0  0  0  0
  4  9  1  0  0  0  0
  9 10  1  0  0  0  0
 10 11  1  0  0  0  0
 11 12  1  0  0  0  0
 12 13  2  0  0  0  0
 12 14  2  0  0  0  0
 14 15  1  0  0  0  0
 15 16  1  0  0  0  0
 12 17  2  0  0  0  0
 17 18  1  0  0  0  0
 18 19  1  0  0  0  0
  1 20  1  0  0  0  0
  1 21  1  0  0  0  0
  1 22  1  0  0  0  0
  2 23  1  0  0  0  0
  2 24  1  0  0  0  0
  7 25  1  0  0  0  0
  7 26  1  0  0  0  0
  8 27  1  0  0  0  0
  8 28  1  0  0  0  0
  8 29  1  0  0  0  0
 10 30  1  0  0  0  0
 10 31  1  0  0  0  0
 15 32  1  0  0  0  0
 15 33  1  0  0  0  0
 16 34  1  0  0  0  0
 16 35  1  0  0  0  0
 16 36  1  0  0  0  0
 18 37  1  0  0  0  0
 18 38  1  0  0  0  0
 19 39  1  0  0  0  0
 19 40  1  0  0  0  0
 19 41  1  0  0  0  0
M  END
