 xtb: 6.7.1 (edcfbbe)
          04092505213D

 41 40  0     0  0            999 V2000
    4.3612   -0.9079   -2.3963 C   0  0  0  0  0  0  0  0  0  0  0  0
    3.4597   -2.0288   -1.9224 C   0  0  0  0  0  0  0  0  0  0  0  0
    2.9196   -1.8008   -0.6073 O   0  0  0  0  0  0  0  0  0  0  0  0
    2.1712   -0.4857   -0.1180 P   0  0  0  0  0  0  0  0  0  0  0  0
    3.2818    1.0814    0.2955 S   0  0  0  0  0  0  0  0  0  0  0  0
    1.3880   -1.0761    1.1239 O   0  0  0  0  0  0  0  0  0  0  0  0
    1.7802   -0.9128    2.5027 C   0  0  0  0  0  0  0  0  0  0  0  0
    0.6057   -0.3924    3.3082 C   0  0  0  0  0  0  0  0  0  0  0  0
    0.6521   -0.2392   -1.5682 S   0  0  0  0  0  0  0  0  0  0  0  0
    0.2191    1.4659   -1.1413 C   0  0  0  0  0  0  0  0  0  0  0  0
   -0.4999    1.6058    0.5115 S   0  0  0  0  0  0  0  0  0  0  0  0
   -2.2268    0.4277    0.1313 P   0  0  0  0  0  0  0  0  0  0  0  0
   -2.9962    0.6057   -1.6685 S   0  0  0  0  0  0  0  0  0  0  0  0
   -3.1498    0.7578    1.3763 O   0  0  0  0  0  0  0  0  0  0  0  0
   -3.4671    2.0774    1.8560 C   0  0  0  0  0  0  0  0  0  0  0  0
   -4.0606    2.9661    0.7822 C   0  0  0  0  0  0  0  0  0  0  0  0
   -1.8538   -1.0577    0.5362 O   0  0  0  0  0  0  0  0  0  0  0  0
   -2.0250   -2.2019   -0.3270 C   0  0  0  0  0  0  0  0  0  0  0  0
   -0.9846   -3.2426    0.0318 C   0  0  0  0  0  0  0  0  0  0  0  0
    5.1476   -0.7190   -1.6693 H   0  0  0  0  0  0  0  0  0  0  0  0
    4.8085   -1.1839   -3.3458 H   0  0  0  0  0  0  0  0  0  0  0  0
    3.7868    0.0080   -2.5287 H   0  0  0  0  0  0  0  0  0  0  0  0
    4.0107   -2.9646   -1.8130 H   0  0  0  0  0  0  0  0  0  0  0  0
    2.6229   -2.1699   -2.6124 H   0  0  0  0  0  0  0  0  0  0  0  0
    2.0912   -1.9012    2.8471 H   0  0  0  0  0  0  0  0  0  0  0  0
    2.6302   -0.2242    2.5532 H   0  0  0  0  0  0  0  0  0  0  0  0
    0.8481   -0.4461    4.3645 H   0  0  0  0  0  0  0  0  0  0  0  0
    0.3913    0.6400    3.0435 H   0  0  0  0  0  0  0  0  0  0  0  0
   -0.2772   -0.9943    3.1081 H   0  0  0  0  0  0  0  0  0  0  0  0
   -0.5034    1.7960   -1.8876 H   0  0  0  0  0  0  0  0  0  0  0  0
    1.1156    2.0856   -1.1437 H   0  0  0  0  0  0  0  0  0  0  0  0
   -4.1817    1.8911    2.6597 H   0  0  0  0  0  0  0  0  0  0  0  0
   -2.5563    2.5220    2.2670 H   0  0  0  0  0  0  0  0  0  0  0  0
   -4.9217    2.4845    0.3249 H   0  0  0  0  0  0  0  0  0  0  0  0
   -4.3681    3.9084    1.2240 H   0  0  0  0  0  0  0  0  0  0  0  0
   -3.3230    3.1627    0.0054 H   0  0  0  0  0  0  0  0  0  0  0  0
   -3.0359   -2.5836   -0.1644 H   0  0  0  0  0  0  0  0  0  0  0  0
   -1.9311   -1.8831   -1.3706 H   0  0  0  0  0  0  0  0  0  0  0  0
   -1.0908   -3.5312    1.0734 H   0  0  0  0  0  0  0  0  0  0  0  0
   -1.1247   -4.1131   -0.6007 H   0  0  0  0  0  0  0  0  0  0  0  0
    0.0169   -2.8479   -0.1200 H   0  0  0  0  0  0  0  0  0  0  0  0
  1  2  1  0  0  0  0
  2  3  1  0  0  0  0
  3  4  2  0  0  0  0
  4  5  2  0  0  0  0
  4  6  2  0  0  0  0
  6  7  1  0  0  0  0
  7  8  1  0  0  0  0
  4  9  1  0  0  0  0
  9 10  1  0  0  0  0
 10 11  1  0  0  0  0
 11 12  1  0  0  0  0
 12 13  2  0  0  0  0
 12 14  2  0  0  0  0
 14 15  1  0  0  0  0
 15 16  1  0  0  0  0
 12 17  2  0  0  0  0
 17 18  1  0  0  0  0
 18 19  1  0  0  0  0
  1 20  1  0  0  0  0
  1 21  1  0  0  0  0
  1 22  1  0  0  0  0
  2 23  1  0  0  0  0
  2 24  1  0  0  0  0
  7 25  1  0  0  0  0
  7 26  1  0  0  0  0
  8 27  1  0  0  0  0
  8 28  1  0  0  0  0
  8 29  1  0  0  0  0
 10 30  1  0  0  0  0
 10 31  1  0  0  0  0
 15 32  1  0  0  0  0
 15 33  1  0  0  0  0
 16 34  1  0  0  0  0
 16 35  1  0  0  0  0
 16 36  1  0  0  0  0
 18 37  1  0  0  0  0
 18 38  1  0  0  0  0
 19 39  1  0  0  0  0
 19 40  1  0  0  0  0
 19 41  1  0  0  0  0
M  END
