 xtb: 6.7.1 (edcfbbe)
          04092514013D

 41 40  0     0  0            999 V2000
    4.2486   -1.5881   -2.3679 C   0  0  0  0  0  0  0  0  0  0  0  0
    4.4148   -1.6592   -0.8640 C   0  0  0  0  0  0  0  0  0  0  0  0
    3.1523   -1.6439   -0.1735 O   0  0  0  0  0  0  0  0  0  0  0  0
    2.2770   -0.3316    0.0290 P   0  0  0  0  0  0  0  0  0  0  0  0
    3.3080    1.3339    0.1772 S   0  0  0  0  0  0  0  0  0  0  0  0
    1.3506   -0.7581    1.2432 O   0  0  0  0  0  0  0  0  0  0  0  0
    1.8277   -1.3274    2.4823 C   0  0  0  0  0  0  0  0  0  0  0  0
    2.5813   -0.3256    3.3338 C   0  0  0  0  0  0  0  0  0  0  0  0
    0.8362   -0.3774   -1.5216 S   0  0  0  0  0  0  0  0  0  0  0  0
    0.2856    1.3463   -1.4151 C   0  0  0  0  0  0  0  0  0  0  0  0
   -0.5858    1.7433    0.1278 S   0  0  0  0  0  0  0  0  0  0  0  0
   -2.2285    0.4350   -0.1327 P   0  0  0  0  0  0  0  0  0  0  0  0
   -2.9136    0.2424   -1.9619 S   0  0  0  0  0  0  0  0  0  0  0  0
   -3.2814    0.9604    0.9341 O   0  0  0  0  0  0  0  0  0  0  0  0
   -4.0921    2.1328    0.7038 C   0  0  0  0  0  0  0  0  0  0  0  0
   -5.1737    2.1687    1.7657 C   0  0  0  0  0  0  0  0  0  0  0  0
   -1.7057   -0.8774    0.5753 O   0  0  0  0  0  0  0  0  0  0  0  0
   -2.1052   -2.2013    0.1674 C   0  0  0  0  0  0  0  0  0  0  0  0
   -3.4814   -2.5499    0.6942 C   0  0  0  0  0  0  0  0  0  0  0  0
    3.5732   -2.3662   -2.7134 H   0  0  0  0  0  0  0  0  0  0  0  0
    3.8446   -0.6190   -2.6560 H   0  0  0  0  0  0  0  0  0  0  0  0
    5.2187   -1.7197   -2.8376 H   0  0  0  0  0  0  0  0  0  0  0  0
    5.0181   -0.8201   -0.5029 H   0  0  0  0  0  0  0  0  0  0  0  0
    4.8682   -2.6032   -0.5572 H   0  0  0  0  0  0  0  0  0  0  0  0
    0.9113   -1.6548    2.9766 H   0  0  0  0  0  0  0  0  0  0  0  0
    2.4530   -2.1920    2.2471 H   0  0  0  0  0  0  0  0  0  0  0  0
    2.8027   -0.7736    4.2978 H   0  0  0  0  0  0  0  0  0  0  0  0
    3.5149   -0.0376    2.8534 H   0  0  0  0  0  0  0  0  0  0  0  0
    1.9808    0.5687    3.4833 H   0  0  0  0  0  0  0  0  0  0  0  0
   -0.3805    1.5037   -2.2630 H   0  0  0  0  0  0  0  0  0  0  0  0
    1.1471    2.0127   -1.4554 H   0  0  0  0  0  0  0  0  0  0  0  0
   -3.4480    3.0147    0.7631 H   0  0  0  0  0  0  0  0  0  0  0  0
   -4.5183    2.0692   -0.3029 H   0  0  0  0  0  0  0  0  0  0  0  0
   -5.8104    1.2924    1.6857 H   0  0  0  0  0  0  0  0  0  0  0  0
   -4.7226    2.1874    2.7535 H   0  0  0  0  0  0  0  0  0  0  0  0
   -5.7757    3.0614    1.6296 H   0  0  0  0  0  0  0  0  0  0  0  0
   -2.0805   -2.2540   -0.9263 H   0  0  0  0  0  0  0  0  0  0  0  0
   -1.3327   -2.8500    0.5832 H   0  0  0  0  0  0  0  0  0  0  0  0
   -4.2275   -1.9028    0.2352 H   0  0  0  0  0  0  0  0  0  0  0  0
   -3.7082   -3.5827    0.4477 H   0  0  0  0  0  0  0  0  0  0  0  0
   -3.5165   -2.4180    1.7723 H   0  0  0  0  0  0  0  0  0  0  0  0
  1  2  1  0  0  0  0
  2  3  1  0  0  0  0
  3  4  2  0  0  0  0
  4  5  2  0  0  0  0
  4  6  2  0  0  0  0
  6  7  1  0  0  0  0
  7  8  1  0  0  0  0
  4  9  1  0  0  0  0
  9 10  1  0  0  0  0
 10 11  1  0  0  0  0
 11 12  1  0  0  0  0
 12 13  2  0  0  0  0
 12 14  2  0  0  0  0
 14 15  1  0  0  0  0
 15 16  1  0  0  0  0
 12 17  2  0  0  0  0
 17 18  1  0  0  0  0
 18 19  1  0  0  0  0
  1 20  1  0  0  0  0
  1 21  1  0  0  0  0
  1 22  1  0  0  0  0
  2 23  1  0  0  0  0
  2 24  1  0  0  0  0
  7 25  1  0  0  0  0
  7 26  1  0  0  0  0
  8 27  1  0  0  0  0
  8 28  1  0  0  0  0
  8 29  1  0  0  0  0
 10 30  1  0  0  0  0
 10 31  1  0  0  0  0
 15 32  1  0  0  0  0
 15 33  1  0  0  0  0
 16 34  1  0  0  0  0
 16 35  1  0  0  0  0
 16 36  1  0  0  0  0
 18 37  1  0  0  0  0
 18 38  1  0  0  0  0
 19 39  1  0  0  0  0
 19 40  1  0  0  0  0
 19 41  1  0  0  0  0
M  END
