 xtb: 6.7.1 (edcfbbe)
          04092505203D

 41 40  0     0  0            999 V2000
    4.4249    1.9466   -0.8709 C   0  0  0  0  0  0  0  0  0  0  0  0
    4.5592    0.4381   -0.9136 C   0  0  0  0  0  0  0  0  0  0  0  0
    3.2842   -0.2157   -1.0458 O   0  0  0  0  0  0  0  0  0  0  0  0
    2.2046   -0.2185    0.1178 P   0  0  0  0  0  0  0  0  0  0  0  0
    2.9306   -0.3996    1.9329 S   0  0  0  0  0  0  0  0  0  0  0  0
    1.2065   -1.3476   -0.3585 O   0  0  0  0  0  0  0  0  0  0  0  0
    1.3140   -2.7214    0.0612 C   0  0  0  0  0  0  0  0  0  0  0  0
    2.5762   -3.3739   -0.4603 C   0  0  0  0  0  0  0  0  0  0  0  0
    1.0119    1.4787   -0.2700 S   0  0  0  0  0  0  0  0  0  0  0  0
    0.2051    1.5346    1.3522 C   0  0  0  0  0  0  0  0  0  0  0  0
   -0.8820    0.1180    1.6804 S   0  0  0  0  0  0  0  0  0  0  0  0
   -2.1582    0.2583   -0.0275 P   0  0  0  0  0  0  0  0  0  0  0  0
   -1.6909   -0.7756   -1.6298 S   0  0  0  0  0  0  0  0  0  0  0  0
   -2.2552    1.8231   -0.2133 O   0  0  0  0  0  0  0  0  0  0  0  0
   -2.4881    2.4210   -1.5057 C   0  0  0  0  0  0  0  0  0  0  0  0
   -3.9336    2.2552   -1.9226 C   0  0  0  0  0  0  0  0  0  0  0  0
   -3.5811   -0.0668    0.6067 O   0  0  0  0  0  0  0  0  0  0  0  0
   -3.8881   -1.3278    1.2296 C   0  0  0  0  0  0  0  0  0  0  0  0
   -4.4253   -2.3294    0.2253 C   0  0  0  0  0  0  0  0  0  0  0  0
    3.8468    2.2982   -1.7220 H   0  0  0  0  0  0  0  0  0  0  0  0
    3.9197    2.2501    0.0452 H   0  0  0  0  0  0  0  0  0  0  0  0
    5.4125    2.3958   -0.8941 H   0  0  0  0  0  0  0  0  0  0  0  0
    5.0429    0.0695   -0.0032 H   0  0  0  0  0  0  0  0  0  0  0  0
    5.1150    0.1064   -1.7916 H   0  0  0  0  0  0  0  0  0  0  0  0
    1.2811   -2.7499    1.1556 H   0  0  0  0  0  0  0  0  0  0  0  0
    0.4156   -3.1851   -0.3501 H   0  0  0  0  0  0  0  0  0  0  0  0
    2.5686   -4.4284   -0.2031 H   0  0  0  0  0  0  0  0  0  0  0  0
    2.6351   -3.2627   -1.5400 H   0  0  0  0  0  0  0  0  0  0  0  0
    3.4492   -2.9041   -0.0077 H   0  0  0  0  0  0  0  0  0  0  0  0
   -0.3713    2.4548    1.3899 H   0  0  0  0  0  0  0  0  0  0  0  0
    0.9629    1.5052    2.1362 H   0  0  0  0  0  0  0  0  0  0  0  0
   -2.2166    3.4681   -1.3675 H   0  0  0  0  0  0  0  0  0  0  0  0
   -1.8158    1.9565   -2.2345 H   0  0  0  0  0  0  0  0  0  0  0  0
   -4.5931    2.6675   -1.1639 H   0  0  0  0  0  0  0  0  0  0  0  0
   -4.0997    2.7646   -2.8664 H   0  0  0  0  0  0  0  0  0  0  0  0
   -4.1571    1.1959   -2.0444 H   0  0  0  0  0  0  0  0  0  0  0  0
   -2.9895   -1.7080    1.7274 H   0  0  0  0  0  0  0  0  0  0  0  0
   -4.6391   -1.0805    1.9826 H   0  0  0  0  0  0  0  0  0  0  0  0
   -4.6793   -3.2505    0.7397 H   0  0  0  0  0  0  0  0  0  0  0  0
   -5.3124   -1.9316   -0.2595 H   0  0  0  0  0  0  0  0  0  0  0  0
   -3.6782   -2.5407   -0.5365 H   0  0  0  0  0  0  0  0  0  0  0  0
  1  2  1  0  0  0  0
  2  3  1  0  0  0  0
  3  4  2  0  0  0  0
  4  5  2  0  0  0  0
  4  6  2  0  0  0  0
  6  7  1  0  0  0  0
  7  8  1  0  0  0  0
  4  9  1  0  0  0  0
  9 10  1  0  0  0  0
 10 11  1  0  0  0  0
 11 12  1  0  0  0  0
 12 13  2  0  0  0  0
 12 14  2  0  0  0  0
 14 15  1  0  0  0  0
 15 16  1  0  0  0  0
 12 17  2  0  0  0  0
 17 18  1  0  0  0  0
 18 19  1  0  0  0  0
  1 20  1  0  0  0  0
  1 21  1  0  0  0  0
  1 22  1  0  0  0  0
  2 23  1  0  0  0  0
  2 24  1  0  0  0  0
  7 25  1  0  0  0  0
  7 26  1  0  0  0  0
  8 27  1  0  0  0  0
  8 28  1  0  0  0  0
  8 29  1  0  0  0  0
 10 30  1  0  0  0  0
 10 31  1  0  0  0  0
 15 32  1  0  0  0  0
 15 33  1  0  0  0  0
 16 34  1  0  0  0  0
 16 35  1  0  0  0  0
 16 36  1  0  0  0  0
 18 37  1  0  0  0  0
 18 38  1  0  0  0  0
 19 39  1  0  0  0  0
 19 40  1  0  0  0  0
 19 41  1  0  0  0  0
M  END
