 xtb: 6.7.1 (edcfbbe)
          04032519583D

 10  9  0     0  0            999 V2000
   -0.5903    0.0757   -0.4638 C   0  0  0  0  0  0  0  0  0  0  0  0
    0.6007   -0.0688    0.4889 C   0  0  0  0  0  0  0  0  0  0  0  0
    1.7809    0.0333   -0.2779 O   0  0  0  0  0  0  0  0  0  0  0  0
   -1.8287    0.0153    0.2006 O   0  0  0  0  0  0  0  0  0  0  0  0
   -0.5173   -0.6904   -1.2455 H   0  0  0  0  0  0  0  0  0  0  0  0
   -0.5466    1.0565   -0.9422 H   0  0  0  0  0  0  0  0  0  0  0  0
    0.5535   -1.0444    0.9927 H   0  0  0  0  0  0  0  0  0  0  0  0
    0.5508    0.7238    1.2463 H   0  0  0  0  0  0  0  0  0  0  0  0
    2.5490   -0.0296    0.3064 H   0  0  0  0  0  0  0  0  0  0  0  0
   -1.9537   -0.8699    0.5711 H   0  0  0  0  0  0  0  0  0  0  0  0
  1  2  1  0  0  0  0
  2  3  1  0  0  0  0
  1  4  1  0  0  0  0
  1  5  1  0  0  0  0
  1  6  1  0  0  0  0
  2  7  1  0  0  0  0
  2  8  1  0  0  0  0
  3  9  1  0  0  0  0
  4 10  1  0  0  0  0
M  END
