 xtb: 6.7.1 (edcfbbe)
          04032520413D

 19 19  0     0  0            999 V2000
   -3.0787    0.3752    0.0057 C   0  0  0  0  0  0  0  0  0  0  0  0
   -1.6170    0.0455   -0.0048 C   0  0  0  0  0  0  0  0  0  0  0  0
   -1.1903   -1.2773   -0.0039 C   0  0  0  0  0  0  0  0  0  0  0  0
    0.1582   -1.5785   -0.0012 C   0  0  0  0  0  0  0  0  0  0  0  0
    1.1270   -0.5850    0.0005 C   0  0  0  0  0  0  0  0  0  0  0  0
    0.6970    0.7444   -0.0004 C   0  0  0  0  0  0  0  0  0  0  0  0
   -0.6597    1.0462   -0.0028 C   0  0  0  0  0  0  0  0  0  0  0  0
    1.5677    1.7970    0.0001 O   0  0  0  0  0  0  0  0  0  0  0  0
    2.5906   -0.9269    0.0023 C   0  0  0  0  0  0  0  0  0  0  0  0
   -3.5093    0.1300    0.9759 H   0  0  0  0  0  0  0  0  0  0  0  0
   -3.2388    1.4326   -0.1854 H   0  0  0  0  0  0  0  0  0  0  0  0
   -3.6052   -0.2050   -0.7492 H   0  0  0  0  0  0  0  0  0  0  0  0
   -1.9192   -2.0740   -0.0058 H   0  0  0  0  0  0  0  0  0  0  0  0
    0.4714   -2.6127   -0.0014 H   0  0  0  0  0  0  0  0  0  0  0  0
   -0.9452    2.0876   -0.0039 H   0  0  0  0  0  0  0  0  0  0  0  0
    2.4813    1.4763    0.0007 H   0  0  0  0  0  0  0  0  0  0  0  0
    3.0857   -0.5303   -0.8844 H   0  0  0  0  0  0  0  0  0  0  0  0
    3.0841   -0.5277    0.8887 H   0  0  0  0  0  0  0  0  0  0  0  0
    2.7185   -2.0056    0.0040 H   0  0  0  0  0  0  0  0  0  0  0  0
  1  2  1  0  0  0  0
  2  3  4  0  0  0  0
  3  4  4  0  0  0  0
  4  5  4  0  0  0  0
  5  6  4  0  0  0  0
  2  7  4  0  0  0  0
  6  7  4  0  0  0  0
  6  8  1  0  0  0  0
  5  9  1  0  0  0  0
  1 10  1  0  0  0  0
  1 11  1  0  0  0  0
  1 12  1  0  0  0  0
  3 13  1  0  0  0  0
  4 14  1  0  0  0  0
  7 15  1  0  0  0  0
  8 16  1  0  0  0  0
  9 17  1  0  0  0  0
  9 18  1  0  0  0  0
  9 19  1  0  0  0  0
M  END
