 xtb: 6.7.1 (edcfbbe)
          04092514023D

 41 40  0     0  0            999 V2000
    5.8838    0.9997   -0.7237 C   0  0  0  0  0  0  0  0  0  0  0  0
    4.5406    0.4484   -1.1615 C   0  0  0  0  0  0  0  0  0  0  0  0
    3.6988    0.3433    0.0055 O   0  0  0  0  0  0  0  0  0  0  0  0
    2.1158    0.2742   -0.0881 P   0  0  0  0  0  0  0  0  0  0  0  0
    1.2753    1.6875   -1.1547 S   0  0  0  0  0  0  0  0  0  0  0  0
    1.6649    0.3541    1.4170 O   0  0  0  0  0  0  0  0  0  0  0  0
    1.7626   -0.7008    2.4069 C   0  0  0  0  0  0  0  0  0  0  0  0
    3.1875   -1.1325    2.6761 C   0  0  0  0  0  0  0  0  0  0  0  0
    1.7620   -1.7052   -0.7855 S   0  0  0  0  0  0  0  0  0  0  0  0
    0.0353   -1.5380   -1.2803 C   0  0  0  0  0  0  0  0  0  0  0  0
   -1.1259   -1.7501    0.1214 S   0  0  0  0  0  0  0  0  0  0  0  0
   -2.2518    0.0180   -0.0355 P   0  0  0  0  0  0  0  0  0  0  0  0
   -2.5803    0.7364   -1.8329 S   0  0  0  0  0  0  0  0  0  0  0  0
   -1.4397    0.9499    0.9599 O   0  0  0  0  0  0  0  0  0  0  0  0
   -1.5736    2.3838    0.9448 C   0  0  0  0  0  0  0  0  0  0  0  0
   -2.9246    2.8403    1.4540 C   0  0  0  0  0  0  0  0  0  0  0  0
   -3.5531   -0.3097    0.8174 O   0  0  0  0  0  0  0  0  0  0  0  0
   -4.7875   -0.7776    0.2434 C   0  0  0  0  0  0  0  0  0  0  0  0
   -4.7092   -2.2222   -0.2074 C   0  0  0  0  0  0  0  0  0  0  0  0
    6.3451    0.3333   -0.0009 H   0  0  0  0  0  0  0  0  0  0  0  0
    6.5303    1.0904   -1.5908 H   0  0  0  0  0  0  0  0  0  0  0  0
    5.7566    1.9787   -0.2700 H   0  0  0  0  0  0  0  0  0  0  0  0
    4.6433   -0.5487   -1.5975 H   0  0  0  0  0  0  0  0  0  0  0  0
    4.0550    1.1094   -1.8869 H   0  0  0  0  0  0  0  0  0  0  0  0
    1.3035   -0.2514    3.2887 H   0  0  0  0  0  0  0  0  0  0  0  0
    1.1551   -1.5452    2.0683 H   0  0  0  0  0  0  0  0  0  0  0  0
    3.8010   -0.2737    2.9353 H   0  0  0  0  0  0  0  0  0  0  0  0
    3.1866   -1.8357    3.5037 H   0  0  0  0  0  0  0  0  0  0  0  0
    3.6104   -1.6184    1.7998 H   0  0  0  0  0  0  0  0  0  0  0  0
   -0.1542   -2.3341   -1.9955 H   0  0  0  0  0  0  0  0  0  0  0  0
   -0.1256   -0.5550   -1.7319 H   0  0  0  0  0  0  0  0  0  0  0  0
   -0.7581    2.7283    1.5829 H   0  0  0  0  0  0  0  0  0  0  0  0
   -1.4011    2.7355   -0.0785 H   0  0  0  0  0  0  0  0  0  0  0  0
   -3.1187    2.4208    2.4376 H   0  0  0  0  0  0  0  0  0  0  0  0
   -2.9329    3.9245    1.5135 H   0  0  0  0  0  0  0  0  0  0  0  0
   -3.7092    2.5193    0.7698 H   0  0  0  0  0  0  0  0  0  0  0  0
   -5.5129   -0.6503    1.0485 H   0  0  0  0  0  0  0  0  0  0  0  0
   -5.0462   -0.1272   -0.5984 H   0  0  0  0  0  0  0  0  0  0  0  0
   -4.3682   -2.8575    0.6057 H   0  0  0  0  0  0  0  0  0  0  0  0
   -5.6951   -2.5458   -0.5275 H   0  0  0  0  0  0  0  0  0  0  0  0
   -4.0186   -2.3178   -1.0438 H   0  0  0  0  0  0  0  0  0  0  0  0
  1  2  1  0  0  0  0
  2  3  1  0  0  0  0
  3  4  2  0  0  0  0
  4  5  2  0  0  0  0
  4  6  2  0  0  0  0
  6  7  1  0  0  0  0
  7  8  1  0  0  0  0
  4  9  1  0  0  0  0
  9 10  1  0  0  0  0
 10 11  1  0  0  0  0
 11 12  1  0  0  0  0
 12 13  2  0  0  0  0
 12 14  2  0  0  0  0
 14 15  1  0  0  0  0
 15 16  1  0  0  0  0
 12 17  2  0  0  0  0
 17 18  1  0  0  0  0
 18 19  1  0  0  0  0
  1 20  1  0  0  0  0
  1 21  1  0  0  0  0
  1 22  1  0  0  0  0
  2 23  1  0  0  0  0
  2 24  1  0  0  0  0
  7 25  1  0  0  0  0
  7 26  1  0  0  0  0
  8 27  1  0  0  0  0
  8 28  1  0  0  0  0
  8 29  1  0  0  0  0
 10 30  1  0  0  0  0
 10 31  1  0  0  0  0
 15 32  1  0  0  0  0
 15 33  1  0  0  0  0
 16 34  1  0  0  0  0
 16 35  1  0  0  0  0
 16 36  1  0  0  0  0
 18 37  1  0  0  0  0
 18 38  1  0  0  0  0
 19 39  1  0  0  0  0
 19 40  1  0  0  0  0
 19 41  1  0  0  0  0
M  END
