 xtb: 6.7.1 (edcfbbe)
          04092505203D

 41 40  0     0  0            999 V2000
    3.3443    0.3588   -2.7201 C   0  0  0  0  0  0  0  0  0  0  0  0
    1.9736    0.7417   -2.2060 C   0  0  0  0  0  0  0  0  0  0  0  0
    1.4264   -0.2785   -1.3532 O   0  0  0  0  0  0  0  0  0  0  0  0
    2.0079   -0.5773    0.0913 P   0  0  0  0  0  0  0  0  0  0  0  0
    2.7182    0.9859    1.0486 S   0  0  0  0  0  0  0  0  0  0  0  0
    3.0417   -1.7325   -0.2664 O   0  0  0  0  0  0  0  0  0  0  0  0
    3.5808   -2.7055    0.6473 C   0  0  0  0  0  0  0  0  0  0  0  0
    4.1858   -2.0862    1.8900 C   0  0  0  0  0  0  0  0  0  0  0  0
    0.4530   -1.6436    1.0211 S   0  0  0  0  0  0  0  0  0  0  0  0
   -0.2787   -0.3373    2.0646 C   0  0  0  0  0  0  0  0  0  0  0  0
   -2.0248   -0.0647    1.7084 S   0  0  0  0  0  0  0  0  0  0  0  0
   -1.7949    0.7905   -0.2271 P   0  0  0  0  0  0  0  0  0  0  0  0
   -0.4729    2.2376   -0.2746 S   0  0  0  0  0  0  0  0  0  0  0  0
   -3.2768    1.2044   -0.6100 O   0  0  0  0  0  0  0  0  0  0  0  0
   -3.9410    2.2971    0.0592 C   0  0  0  0  0  0  0  0  0  0  0  0
   -5.1493    2.6825   -0.7695 C   0  0  0  0  0  0  0  0  0  0  0  0
   -1.4710   -0.3381   -1.2732 O   0  0  0  0  0  0  0  0  0  0  0  0
   -2.4069   -1.3069   -1.8146 C   0  0  0  0  0  0  0  0  0  0  0  0
   -2.9745   -2.2308   -0.7581 C   0  0  0  0  0  0  0  0  0  0  0  0
    4.0416    0.2945   -1.8853 H   0  0  0  0  0  0  0  0  0  0  0  0
    3.3017   -0.6061   -3.2181 H   0  0  0  0  0  0  0  0  0  0  0  0
    3.6918    1.1158   -3.4161 H   0  0  0  0  0  0  0  0  0  0  0  0
    1.2407    0.8333   -3.0093 H   0  0  0  0  0  0  0  0  0  0  0  0
    2.0121    1.6828   -1.6459 H   0  0  0  0  0  0  0  0  0  0  0  0
    2.7800   -3.4013    0.9126 H   0  0  0  0  0  0  0  0  0  0  0  0
    4.3364   -3.2210    0.0516 H   0  0  0  0  0  0  0  0  0  0  0  0
    4.6480   -2.8637    2.4896 H   0  0  0  0  0  0  0  0  0  0  0  0
    4.9350   -1.3454    1.6207 H   0  0  0  0  0  0  0  0  0  0  0  0
    3.4148   -1.5927    2.4800 H   0  0  0  0  0  0  0  0  0  0  0  0
    0.2870    0.5872    1.9150 H   0  0  0  0  0  0  0  0  0  0  0  0
   -0.2295   -0.6651    3.0997 H   0  0  0  0  0  0  0  0  0  0  0  0
   -4.2298    1.9582    1.0574 H   0  0  0  0  0  0  0  0  0  0  0  0
   -3.2343    3.1280    0.1536 H   0  0  0  0  0  0  0  0  0  0  0  0
   -4.8370    3.0012   -1.7601 H   0  0  0  0  0  0  0  0  0  0  0  0
   -5.8206    1.8343   -0.8656 H   0  0  0  0  0  0  0  0  0  0  0  0
   -5.6694    3.4986   -0.2791 H   0  0  0  0  0  0  0  0  0  0  0  0
   -3.1992   -0.7596   -2.3278 H   0  0  0  0  0  0  0  0  0  0  0  0
   -1.7979   -1.8522   -2.5375 H   0  0  0  0  0  0  0  0  0  0  0  0
   -3.6178   -1.6813   -0.0744 H   0  0  0  0  0  0  0  0  0  0  0  0
   -3.5587   -3.0037   -1.2480 H   0  0  0  0  0  0  0  0  0  0  0  0
   -2.1720   -2.6968   -0.1901 H   0  0  0  0  0  0  0  0  0  0  0  0
  1  2  1  0  0  0  0
  2  3  1  0  0  0  0
  3  4  2  0  0  0  0
  4  5  2  0  0  0  0
  4  6  2  0  0  0  0
  6  7  1  0  0  0  0
  7  8  1  0  0  0  0
  4  9  1  0  0  0  0
  9 10  1  0  0  0  0
 10 11  1  0  0  0  0
 11 12  1  0  0  0  0
 12 13  2  0  0  0  0
 12 14  2  0  0  0  0
 14 15  1  0  0  0  0
 15 16  1  0  0  0  0
 12 17  2  0  0  0  0
 17 18  1  0  0  0  0
 18 19  1  0  0  0  0
  1 20  1  0  0  0  0
  1 21  1  0  0  0  0
  1 22  1  0  0  0  0
  2 23  1  0  0  0  0
  2 24  1  0  0  0  0
  7 25  1  0  0  0  0
  7 26  1  0  0  0  0
  8 27  1  0  0  0  0
  8 28  1  0  0  0  0
  8 29  1  0  0  0  0
 10 30  1  0  0  0  0
 10 31  1  0  0  0  0
 15 32  1  0  0  0  0
 15 33  1  0  0  0  0
 16 34  1  0  0  0  0
 16 35  1  0  0  0  0
 16 36  1  0  0  0  0
 18 37  1  0  0  0  0
 18 38  1  0  0  0  0
 19 39  1  0  0  0  0
 19 40  1  0  0  0  0
 19 41  1  0  0  0  0
M  END
