  24
 
 C         -3.5333543240       -0.2958686258        0.0001781533
 C         -2.8608203557       -1.5186060119       -0.0001432742
 C         -1.4880107702       -1.5582508540       -0.0002702407
 C         -0.7217042447       -0.3812438761       -0.0001064556
 C         -1.4099910257        0.8554419052        0.0000356532
 C         -2.8142789198        0.8714590412        0.0002355495
 C         -0.6757303274        2.0759976033       -0.0001004671
 C          0.6757382388        2.0760247901       -0.0003516406
 C          1.4100461981        0.8554931943       -0.0002877211
 C          0.7218084418       -0.3812160577       -0.0000915070
 C          1.4881612840       -1.5581952907        0.0001889847
 C          2.8609676890       -1.5184929567        0.0002105736
 C          3.5334539635       -0.2957289387       -0.0000838738
 C          2.8143354441        0.8715711817       -0.0003271579
 H         -4.6127444013       -0.2747095442        0.0003447841
 H         -3.4253071178       -2.4391575478       -0.0002735460
 H         -0.9998608473       -2.5195833069       -0.0005271559
 H         -3.3201896420        1.8263301629        0.0004079338
 H         -1.2306527426        3.0031401150       -0.0000412463
 H          1.2306317511        3.0031872656       -0.0005278950
 H          1.0000420502       -2.5195444713        0.0004466650
 H          3.4254976909       -2.4390200660        0.0004945516
 H          4.6128396839       -0.2745221798       -0.0000743321
 H          3.3202075952        1.8264634969       -0.0005230282
          24
        -35.07397890
 C         -3.5334047312       -0.2978627307        0.0001505975
 C         -2.8608950163       -1.5206134422       -0.0002211010
 C         -1.4880862153       -1.5602855165       -0.0003210470
 C         -0.7217563410       -0.3832937539       -0.0000788913
 C         -1.4100185881        0.8534056747        0.0001138905
 C         -2.8143061680        0.8694506637        0.0002848518
 C         -0.6757336706        2.0739468090        0.0000577596
 C          0.6757349009        2.0739471936       -0.0001647522
 C          1.4100186424        0.8534010264       -0.0001496772
 C          0.7217563451       -0.3832945781       -0.0000333290
 C          1.4880858290       -1.5602890299        0.0002012963
 C          2.8608930207       -1.5206139359        0.0002540934
 C          3.5334035616       -0.2978632477        0.0000384419
 C          2.8143082076        0.8694511523       -0.0001584850
 H         -4.6127943918       -0.2766822410        0.0002954546
 H         -3.4254000397       -2.4411537693       -0.0004119283
 H         -0.9999553606       -2.5216276400       -0.0006183470
 H         -3.3201979484        1.8243318129        0.0004969032
 H         -1.2306376917        3.0011003268        0.0001541447
 H          1.2306468122        3.0010986669       -0.0002803056
 H          0.9999475162       -2.5216285374        0.0003978874
 H          3.4254047525       -2.4411522600        0.0005014600
 H          4.6127897021       -0.2766779062        0.0000719931
 H          3.3201993083        1.8243334389       -0.0002932304
