 xtb: 6.7.1 (edcfbbe)
          04092514013D

 41 40  0     0  0            999 V2000
    3.2694    1.8743    2.2146 C   0  0  0  0  0  0  0  0  0  0  0  0
    2.4029    1.8670    0.9725 C   0  0  0  0  0  0  0  0  0  0  0  0
    1.5450    0.7067    0.9057 O   0  0  0  0  0  0  0  0  0  0  0  0
    2.0654   -0.7854    0.7868 P   0  0  0  0  0  0  0  0  0  0  0  0
    2.5195   -1.7382    2.4366 S   0  0  0  0  0  0  0  0  0  0  0  0
    3.2578   -0.6325   -0.2632 O   0  0  0  0  0  0  0  0  0  0  0  0
    4.3192   -1.5968   -0.3640 C   0  0  0  0  0  0  0  0  0  0  0  0
    3.8856   -2.8347   -1.1222 C   0  0  0  0  0  0  0  0  0  0  0  0
    0.4258   -1.6452   -0.2343 S   0  0  0  0  0  0  0  0  0  0  0  0
    0.3906   -0.6606   -1.7643 C   0  0  0  0  0  0  0  0  0  0  0  0
   -0.2458    1.0342   -1.5819 S   0  0  0  0  0  0  0  0  0  0  0  0
   -2.0674    0.5810   -0.6277 P   0  0  0  0  0  0  0  0  0  0  0  0
   -3.0289   -1.0149   -1.2482 S   0  0  0  0  0  0  0  0  0  0  0  0
   -2.8782    1.9424   -0.7431 O   0  0  0  0  0  0  0  0  0  0  0  0
   -3.5831    2.3224   -1.9450 C   0  0  0  0  0  0  0  0  0  0  0  0
   -4.5775    3.4080   -1.5825 C   0  0  0  0  0  0  0  0  0  0  0  0
   -1.6351    0.6145    0.8956 O   0  0  0  0  0  0  0  0  0  0  0  0
   -2.2689   -0.1878    1.9082 C   0  0  0  0  0  0  0  0  0  0  0  0
   -3.5953    0.4040    2.3362 C   0  0  0  0  0  0  0  0  0  0  0  0
    3.8401    2.7975    2.2471 H   0  0  0  0  0  0  0  0  0  0  0  0
    2.6545    1.8002    3.1084 H   0  0  0  0  0  0  0  0  0  0  0  0
    3.9575    1.0299    2.2011 H   0  0  0  0  0  0  0  0  0  0  0  0
    3.0141    1.8940    0.0679 H   0  0  0  0  0  0  0  0  0  0  0  0
    1.6988    2.7007    0.9667 H   0  0  0  0  0  0  0  0  0  0  0  0
    5.1152   -1.0627   -0.8852 H   0  0  0  0  0  0  0  0  0  0  0  0
    4.6468   -1.8618    0.6466 H   0  0  0  0  0  0  0  0  0  0  0  0
    4.7381   -3.4959   -1.2421 H   0  0  0  0  0  0  0  0  0  0  0  0
    3.1086   -3.3583   -0.5666 H   0  0  0  0  0  0  0  0  0  0  0  0
    3.5004   -2.5684   -2.1029 H   0  0  0  0  0  0  0  0  0  0  0  0
   -0.2594   -1.2173   -2.4378 H   0  0  0  0  0  0  0  0  0  0  0  0
    1.3947   -0.5659   -2.1697 H   0  0  0  0  0  0  0  0  0  0  0  0
   -2.8506    2.6823   -2.6723 H   0  0  0  0  0  0  0  0  0  0  0  0
   -4.0850    1.4370   -2.3492 H   0  0  0  0  0  0  0  0  0  0  0  0
   -4.0581    4.2582   -1.1500 H   0  0  0  0  0  0  0  0  0  0  0  0
   -5.1001    3.7247   -2.4794 H   0  0  0  0  0  0  0  0  0  0  0  0
   -5.2993    3.0332   -0.8624 H   0  0  0  0  0  0  0  0  0  0  0  0
   -2.4013   -1.2035    1.5190 H   0  0  0  0  0  0  0  0  0  0  0  0
   -1.5456   -0.2044    2.7259 H   0  0  0  0  0  0  0  0  0  0  0  0
   -3.4619    1.4342    2.6549 H   0  0  0  0  0  0  0  0  0  0  0  0
   -4.2966    0.3784    1.5033 H   0  0  0  0  0  0  0  0  0  0  0  0
   -3.9984   -0.1804    3.1576 H   0  0  0  0  0  0  0  0  0  0  0  0
  1  2  1  0  0  0  0
  2  3  1  0  0  0  0
  3  4  2  0  0  0  0
  4  5  2  0  0  0  0
  4  6  2  0  0  0  0
  6  7  1  0  0  0  0
  7  8  1  0  0  0  0
  4  9  1  0  0  0  0
  9 10  1  0  0  0  0
 10 11  1  0  0  0  0
 11 12  1  0  0  0  0
 12 13  2  0  0  0  0
 12 14  2  0  0  0  0
 14 15  1  0  0  0  0
 15 16  1  0  0  0  0
 12 17  2  0  0  0  0
 17 18  1  0  0  0  0
 18 19  1  0  0  0  0
  1 20  1  0  0  0  0
  1 21  1  0  0  0  0
  1 22  1  0  0  0  0
  2 23  1  0  0  0  0
  2 24  1  0  0  0  0
  7 25  1  0  0  0  0
  7 26  1  0  0  0  0
  8 27  1  0  0  0  0
  8 28  1  0  0  0  0
  8 29  1  0  0  0  0
 10 30  1  0  0  0  0
 10 31  1  0  0  0  0
 15 32  1  0  0  0  0
 15 33  1  0  0  0  0
 16 34  1  0  0  0  0
 16 35  1  0  0  0  0
 16 36  1  0  0  0  0
 18 37  1  0  0  0  0
 18 38  1  0  0  0  0
 19 39  1  0  0  0  0
 19 40  1  0  0  0  0
 19 41  1  0  0  0  0
M  END
