41
 xtb: 6.7.1 (edcfbbe)
C            6.07113756622454       -0.20663858663063        0.01721000578923
C            4.77062369949853       -0.69803417743452       -0.56304235626506
O            3.68153773508645       -0.00774374894555        0.14362004530344
P            2.25037986864124        0.24152859777363       -0.55385853050415
S            2.26866021579968        0.94677052430520       -2.37023302789381
O            1.53449947480733        1.13788748606149        0.56794279958383
C            1.73028839040054        2.59726099122010        0.60160295634362
C            0.91974020741113        3.12316966606566        1.75721335511659
S            1.33824349540012       -1.64653271934678       -0.27839245732688
C           -0.08608757620707       -1.55968057042460       -1.45712063847128
S           -1.71566762597034       -1.89428039779301       -0.69303713864408
P           -2.21499305837756        0.02650194217078        0.08239183314237
S           -2.00454133458574        1.51863198786569       -1.14270327579088
O           -1.35202581438418        0.24370501409898        1.41232603215899
C           -1.38605402750931       -0.70082277426424        2.54396382856156
C           -2.08405834923042       -0.05002123058904        3.71093909266267
O           -3.67971993497771       -0.30329778825825        0.65842518970755
C           -4.92231842115492        0.03721012086348       -0.05325954342057
C           -5.22142438764951       -0.93396807119116       -1.16684420809478
H            6.19479664711377        0.86612468863478       -0.15597963144681
H            6.12321840821887       -0.40488230765597        1.09144486385361
H            6.89693253654541       -0.73353188634834       -0.47073973919779
H            4.63258879270142       -1.77238955437868       -0.40808316395675
H            4.69595489224364       -0.47329348261448       -1.63153924513201
H            2.79908514408556        2.79876648669655        0.72671081743898
H            1.39174782833871        3.00787399768962       -0.35417127046996
H            1.24312377070213        2.67427613435201        2.70070019591601
H            1.06173261357818        4.20630236848823        1.82281847277188
H           -0.14518489080706        2.92220698909097        1.61049616456231
H            0.05387365030253       -2.34502488705874       -2.20362967189519
H           -0.09174281059560       -0.58664363625506       -1.96020982365712
H           -1.87936066677946       -1.62781055594085        2.23754646852904
H           -0.33776478057546       -0.91783833663705        2.76271325877988
H           -3.13014443276276        0.16442897748507        3.47512460239281
H           -2.05383954561437       -0.73282664990025        4.56631704911014
H           -1.58279137752211        0.87964567226016        3.99506235965852
H           -5.68099127622182       -0.00233976353264        0.73072455985155
H           -4.83560909036516        1.06530664284089       -0.41651003845498
H           -5.25173176807384       -1.96221336145109       -0.79482417901470
H           -6.20383536757073       -0.68956690680582       -1.58428199852569
H           -4.48394838709750       -0.86440226094835       -1.97150916882474
