 xtb: 6.7.1 (edcfbbe)
          04032520143D

  9  9  0     0  0            999 V2000
    1.3103   -0.7077    0.0003 C   0  0  0  0  0  0  0  0  0  0  0  0
    1.3104    0.7076   -0.0000 C   0  0  0  0  0  0  0  0  0  0  0  0
    0.0579    1.2271   -0.0005 C   0  0  0  0  0  0  0  0  0  0  0  0
   -1.1483    0.0000    0.0002 S   0  0  0  0  0  0  0  0  0  0  0  0
    0.0578   -1.2271   -0.0004 C   0  0  0  0  0  0  0  0  0  0  0  0
    2.2038   -1.3048    0.0009 H   0  0  0  0  0  0  0  0  0  0  0  0
    2.2041    1.3047    0.0010 H   0  0  0  0  0  0  0  0  0  0  0  0
   -0.2423    2.2553    0.0007 H   0  0  0  0  0  0  0  0  0  0  0  0
   -0.2425   -2.2552   -0.0011 H   0  0  0  0  0  0  0  0  0  0  0  0
  1  2  4  0  0  0  0
  2  3  2  0  0  0  0
  3  4  1  0  0  0  0
  1  5  2  0  0  0  0
  4  5  1  0  0  0  0
  1  6  1  0  0  0  0
  2  7  1  0  0  0  0
  3  8  1  0  0  0  0
  5  9  1  0  0  0  0
M  END
