 xtb: 6.7.1 (edcfbbe)
          04032520413D

 19 19  0     0  0            999 V2000
   -3.0761    0.3704   -0.0052 C   0  0  0  0  0  0  0  0  0  0  0  0
   -1.6187    0.0197   -0.0110 C   0  0  0  0  0  0  0  0  0  0  0  0
   -1.1879   -1.2937   -0.1082 C   0  0  0  0  0  0  0  0  0  0  0  0
    0.1656   -1.5907   -0.1106 C   0  0  0  0  0  0  0  0  0  0  0  0
    1.1241   -0.5975   -0.0172 C   0  0  0  0  0  0  0  0  0  0  0  0
    0.6895    0.7301    0.0810 C   0  0  0  0  0  0  0  0  0  0  0  0
   -0.6641    1.0260    0.0833 C   0  0  0  0  0  0  0  0  0  0  0  0
    1.6406    1.7047    0.1727 O   0  0  0  0  0  0  0  0  0  0  0  0
    2.5914   -0.8961   -0.0178 C   0  0  0  0  0  0  0  0  0  0  0  0
   -3.6882   -0.5229   -0.0912 H   0  0  0  0  0  0  0  0  0  0  0  0
   -3.3378    0.8853    0.9178 H   0  0  0  0  0  0  0  0  0  0  0  0
   -3.3091    1.0346   -0.8360 H   0  0  0  0  0  0  0  0  0  0  0  0
   -1.9105   -2.0928   -0.1826 H   0  0  0  0  0  0  0  0  0  0  0  0
    0.4849   -2.6200   -0.1872 H   0  0  0  0  0  0  0  0  0  0  0  0
   -0.9863    2.0558    0.1597 H   0  0  0  0  0  0  0  0  0  0  0  0
    1.2221    2.5757    0.2346 H   0  0  0  0  0  0  0  0  0  0  0  0
    3.0763   -0.3839   -0.8478 H   0  0  0  0  0  0  0  0  0  0  0  0
    3.0475   -0.5281    0.9003 H   0  0  0  0  0  0  0  0  0  0  0  0
    2.7686   -1.9643   -0.1029 H   0  0  0  0  0  0  0  0  0  0  0  0
  1  2  1  0  0  0  0
  2  3  4  0  0  0  0
  3  4  4  0  0  0  0
  4  5  4  0  0  0  0
  5  6  4  0  0  0  0
  2  7  4  0  0  0  0
  6  7  4  0  0  0  0
  6  8  1  0  0  0  0
  5  9  1  0  0  0  0
  1 10  1  0  0  0  0
  1 11  1  0  0  0  0
  1 12  1  0  0  0  0
  3 13  1  0  0  0  0
  4 14  1  0  0  0  0
  7 15  1  0  0  0  0
  8 16  1  0  0  0  0
  9 17  1  0  0  0  0
  9 18  1  0  0  0  0
  9 19  1  0  0  0  0
M  END
