 xtb: 6.7.1 (edcfbbe)
          04092505213D

 41 40  0     0  0            999 V2000
    5.1896   -0.4290   -2.4125 C   0  0  0  0  0  0  0  0  0  0  0  0
    3.6792   -0.5227   -2.3197 C   0  0  0  0  0  0  0  0  0  0  0  0
    3.3223   -0.6674   -0.9342 O   0  0  0  0  0  0  0  0  0  0  0  0
    1.9454   -0.1545   -0.3204 P   0  0  0  0  0  0  0  0  0  0  0  0
    1.4209    1.5852   -1.0680 S   0  0  0  0  0  0  0  0  0  0  0  0
    2.2190   -0.2666    1.2306 O   0  0  0  0  0  0  0  0  0  0  0  0
    2.7279    0.8442    1.9989 C   0  0  0  0  0  0  0  0  0  0  0  0
    4.1310    1.2218    1.5789 C   0  0  0  0  0  0  0  0  0  0  0  0
    0.7538   -1.8898   -0.6137 S   0  0  0  0  0  0  0  0  0  0  0  0
   -0.1864   -2.1094    0.9354 C   0  0  0  0  0  0  0  0  0  0  0  0
   -1.9667   -1.8816    0.7236 S   0  0  0  0  0  0  0  0  0  0  0  0
   -1.9023    0.2276    0.4687 P   0  0  0  0  0  0  0  0  0  0  0  0
   -0.7506    1.1522    1.7503 S   0  0  0  0  0  0  0  0  0  0  0  0
   -3.4336    0.6331    0.5156 O   0  0  0  0  0  0  0  0  0  0  0  0
   -4.1850    0.5657    1.7472 C   0  0  0  0  0  0  0  0  0  0  0  0
   -5.4966    1.2917    1.5300 C   0  0  0  0  0  0  0  0  0  0  0  0
   -1.5054    0.4888   -1.0283 O   0  0  0  0  0  0  0  0  0  0  0  0
   -2.2312   -0.0553   -2.1611 C   0  0  0  0  0  0  0  0  0  0  0  0
   -3.2196    0.9579   -2.6972 C   0  0  0  0  0  0  0  0  0  0  0  0
    5.5441    0.4548   -1.8895 H   0  0  0  0  0  0  0  0  0  0  0  0
    5.6423   -1.3090   -1.9652 H   0  0  0  0  0  0  0  0  0  0  0  0
    5.4776   -0.3660   -3.4566 H   0  0  0  0  0  0  0  0  0  0  0  0
    3.3011   -1.3972   -2.8558 H   0  0  0  0  0  0  0  0  0  0  0  0
    3.1966    0.3792   -2.7129 H   0  0  0  0  0  0  0  0  0  0  0  0
    2.0395    1.6880    1.8846 H   0  0  0  0  0  0  0  0  0  0  0  0
    2.6892    0.4835    3.0278 H   0  0  0  0  0  0  0  0  0  0  0  0
    4.5096    1.9893    2.2465 H   0  0  0  0  0  0  0  0  0  0  0  0
    4.7804    0.3512    1.6161 H   0  0  0  0  0  0  0  0  0  0  0  0
    4.1170    1.6121    0.5618 H   0  0  0  0  0  0  0  0  0  0  0  0
    0.1822   -1.4057    1.6813 H   0  0  0  0  0  0  0  0  0  0  0  0
   -0.0411   -3.1396    1.2488 H   0  0  0  0  0  0  0  0  0  0  0  0
   -4.3445   -0.4881    1.9902 H   0  0  0  0  0  0  0  0  0  0  0  0
   -3.5918    1.0311    2.5409 H   0  0  0  0  0  0  0  0  0  0  0  0
   -6.0557    0.8189    0.7279 H   0  0  0  0  0  0  0  0  0  0  0  0
   -6.0788    1.2528    2.4447 H   0  0  0  0  0  0  0  0  0  0  0  0
   -5.3104    2.3295    1.2679 H   0  0  0  0  0  0  0  0  0  0  0  0
   -1.4530   -0.2837   -2.8925 H   0  0  0  0  0  0  0  0  0  0  0  0
   -2.7301   -0.9781   -1.8509 H   0  0  0  0  0  0  0  0  0  0  0  0
   -3.9776    1.1771   -1.9501 H   0  0  0  0  0  0  0  0  0  0  0  0
   -2.7022    1.8789   -2.9530 H   0  0  0  0  0  0  0  0  0  0  0  0
   -3.6940    0.5528   -3.5856 H   0  0  0  0  0  0  0  0  0  0  0  0
  1  2  1  0  0  0  0
  2  3  1  0  0  0  0
  3  4  2  0  0  0  0
  4  5  2  0  0  0  0
  4  6  2  0  0  0  0
  6  7  1  0  0  0  0
  7  8  1  0  0  0  0
  4  9  1  0  0  0  0
  9 10  1  0  0  0  0
 10 11  1  0  0  0  0
 11 12  1  0  0  0  0
 12 13  2  0  0  0  0
 12 14  2  0  0  0  0
 14 15  1  0  0  0  0
 15 16  1  0  0  0  0
 12 17  2  0  0  0  0
 17 18  1  0  0  0  0
 18 19  1  0  0  0  0
  1 20  1  0  0  0  0
  1 21  1  0  0  0  0
  1 22  1  0  0  0  0
  2 23  1  0  0  0  0
  2 24  1  0  0  0  0
  7 25  1  0  0  0  0
  7 26  1  0  0  0  0
  8 27  1  0  0  0  0
  8 28  1  0  0  0  0
  8 29  1  0  0  0  0
 10 30  1  0  0  0  0
 10 31  1  0  0  0  0
 15 32  1  0  0  0  0
 15 33  1  0  0  0  0
 16 34  1  0  0  0  0
 16 35  1  0  0  0  0
 16 36  1  0  0  0  0
 18 37  1  0  0  0  0
 18 38  1  0  0  0  0
 19 39  1  0  0  0  0
 19 40  1  0  0  0  0
 19 41  1  0  0  0  0
M  END
