 xtb: 6.7.1 (edcfbbe)
          04092505213D

 41 40  0     0  0            999 V2000
    3.9769    0.3498   -2.7843 C   0  0  0  0  0  0  0  0  0  0  0  0
    3.0329   -0.4431   -1.9052 C   0  0  0  0  0  0  0  0  0  0  0  0
    2.4960    0.4541   -0.9025 O   0  0  0  0  0  0  0  0  0  0  0  0
    2.0213   -0.0606    0.5158 P   0  0  0  0  0  0  0  0  0  0  0  0
    1.1365    1.3327    1.5590 S   0  0  0  0  0  0  0  0  0  0  0  0
    3.3197   -0.6693    1.2359 O   0  0  0  0  0  0  0  0  0  0  0  0
    4.1988    0.1369    2.0406 C   0  0  0  0  0  0  0  0  0  0  0  0
    5.0382    1.0728    1.1942 C   0  0  0  0  0  0  0  0  0  0  0  0
    1.0431   -1.9079    0.2158 S   0  0  0  0  0  0  0  0  0  0  0  0
   -0.3217   -1.7000    1.4041 C   0  0  0  0  0  0  0  0  0  0  0  0
   -1.9633   -1.6975    0.6369 S   0  0  0  0  0  0  0  0  0  0  0  0
   -1.9364    0.1618   -0.4074 P   0  0  0  0  0  0  0  0  0  0  0  0
   -0.5469    0.4419   -1.7559 S   0  0  0  0  0  0  0  0  0  0  0  0
   -1.9502    1.2954    0.6787 O   0  0  0  0  0  0  0  0  0  0  0  0
   -2.9144    1.3832    1.7586 C   0  0  0  0  0  0  0  0  0  0  0  0
   -4.0575    2.3018    1.3811 C   0  0  0  0  0  0  0  0  0  0  0  0
   -3.4134    0.1868   -0.9876 O   0  0  0  0  0  0  0  0  0  0  0  0
   -3.8014   -0.6653   -2.0860 C   0  0  0  0  0  0  0  0  0  0  0  0
   -5.1053   -0.1356   -2.6470 C   0  0  0  0  0  0  0  0  0  0  0  0
    4.3507   -0.2948   -3.5730 H   0  0  0  0  0  0  0  0  0  0  0  0
    3.4454    1.1884   -3.2252 H   0  0  0  0  0  0  0  0  0  0  0  0
    4.8113    0.7297   -2.2011 H   0  0  0  0  0  0  0  0  0  0  0  0
    3.5420   -1.2716   -1.4037 H   0  0  0  0  0  0  0  0  0  0  0  0
    2.1843   -0.8279   -2.4775 H   0  0  0  0  0  0  0  0  0  0  0  0
    3.5916    0.7031    2.7543 H   0  0  0  0  0  0  0  0  0  0  0  0
    4.8128   -0.5922    2.5711 H   0  0  0  0  0  0  0  0  0  0  0  0
    5.6169    0.5083    0.4672 H   0  0  0  0  0  0  0  0  0  0  0  0
    4.3905    1.7731    0.6666 H   0  0  0  0  0  0  0  0  0  0  0  0
    5.7130    1.6309    1.8356 H   0  0  0  0  0  0  0  0  0  0  0  0
   -0.1698   -0.7648    1.9496 H   0  0  0  0  0  0  0  0  0  0  0  0
   -0.3171   -2.5572    2.0721 H   0  0  0  0  0  0  0  0  0  0  0  0
   -3.2750    0.3781    1.9947 H   0  0  0  0  0  0  0  0  0  0  0  0
   -2.3380    1.7811    2.5966 H   0  0  0  0  0  0  0  0  0  0  0  0
   -3.6727    3.2802    1.1068 H   0  0  0  0  0  0  0  0  0  0  0  0
   -4.6068    1.8914    0.5381 H   0  0  0  0  0  0  0  0  0  0  0  0
   -4.7243    2.4036    2.2315 H   0  0  0  0  0  0  0  0  0  0  0  0
   -3.0034   -0.6490   -2.8355 H   0  0  0  0  0  0  0  0  0  0  0  0
   -3.9134   -1.6827   -1.7026 H   0  0  0  0  0  0  0  0  0  0  0  0
   -5.8727   -0.1461   -1.8786 H   0  0  0  0  0  0  0  0  0  0  0  0
   -4.9731    0.8828   -3.0016 H   0  0  0  0  0  0  0  0  0  0  0  0
   -5.4168   -0.7648   -3.4741 H   0  0  0  0  0  0  0  0  0  0  0  0
  1  2  1  0  0  0  0
  2  3  1  0  0  0  0
  3  4  2  0  0  0  0
  4  5  2  0  0  0  0
  4  6  1  0  0  0  0
  6  7  1  0  0  0  0
  7  8  1  0  0  0  0
  4  9  1  0  0  0  0
  9 10  1  0  0  0  0
 10 11  1  0  0  0  0
 11 12  1  0  0  0  0
 12 13  2  0  0  0  0
 12 14  2  0  0  0  0
 14 15  1  0  0  0  0
 15 16  1  0  0  0  0
 12 17  2  0  0  0  0
 17 18  1  0  0  0  0
 18 19  1  0  0  0  0
  1 20  1  0  0  0  0
  1 21  1  0  0  0  0
  1 22  1  0  0  0  0
  2 23  1  0  0  0  0
  2 24  1  0  0  0  0
  7 25  1  0  0  0  0
  7 26  1  0  0  0  0
  8 27  1  0  0  0  0
  8 28  1  0  0  0  0
  8 29  1  0  0  0  0
 10 30  1  0  0  0  0
 10 31  1  0  0  0  0
 15 32  1  0  0  0  0
 15 33  1  0  0  0  0
 16 34  1  0  0  0  0
 16 35  1  0  0  0  0
 16 36  1  0  0  0  0
 18 37  1  0  0  0  0
 18 38  1  0  0  0  0
 19 39  1  0  0  0  0
 19 40  1  0  0  0  0
 19 41  1  0  0  0  0
M  END
