 xtb: 6.7.1 (edcfbbe)
          04092505203D

 41 40  0     0  0            999 V2000
    1.1620    3.2961    1.2271 C   0  0  0  0  0  0  0  0  0  0  0  0
    1.9131    2.0182    0.9202 C   0  0  0  0  0  0  0  0  0  0  0  0
    1.1378    0.9179    1.4570 O   0  0  0  0  0  0  0  0  0  0  0  0
    1.4735   -0.5876    1.1411 P   0  0  0  0  0  0  0  0  0  0  0  0
    0.4612   -1.8790    2.2041 S   0  0  0  0  0  0  0  0  0  0  0  0
    3.0411   -0.5901    1.4444 O   0  0  0  0  0  0  0  0  0  0  0  0
    3.8218   -1.7953    1.5467 C   0  0  0  0  0  0  0  0  0  0  0  0
    4.5340   -2.1100    0.2453 C   0  0  0  0  0  0  0  0  0  0  0  0
    1.4149   -0.8820   -0.9723 S   0  0  0  0  0  0  0  0  0  0  0  0
   -0.0494   -1.9360   -1.1162 C   0  0  0  0  0  0  0  0  0  0  0  0
   -1.4678   -1.1932   -1.9892 S   0  0  0  0  0  0  0  0  0  0  0  0
   -1.7690    0.5644   -0.8414 P   0  0  0  0  0  0  0  0  0  0  0  0
   -3.4893    1.4508   -1.1293 S   0  0  0  0  0  0  0  0  0  0  0  0
   -0.4744    1.4434   -1.1229 O   0  0  0  0  0  0  0  0  0  0  0  0
   -0.2425    1.9771   -2.4450 C   0  0  0  0  0  0  0  0  0  0  0  0
   -0.6351    3.4396   -2.5081 C   0  0  0  0  0  0  0  0  0  0  0  0
   -1.4156    0.1724    0.6562 O   0  0  0  0  0  0  0  0  0  0  0  0
   -2.4658   -0.0753    1.6091 C   0  0  0  0  0  0  0  0  0  0  0  0
   -3.1354   -1.4141    1.3738 C   0  0  0  0  0  0  0  0  0  0  0  0
    1.7162    4.1412    0.8311 H   0  0  0  0  0  0  0  0  0  0  0  0
    0.1751    3.2621    0.7724 H   0  0  0  0  0  0  0  0  0  0  0  0
    1.0452    3.4122    2.3009 H   0  0  0  0  0  0  0  0  0  0  0  0
    2.8968    2.0023    1.3936 H   0  0  0  0  0  0  0  0  0  0  0  0
    2.0255    1.8675   -0.1568 H   0  0  0  0  0  0  0  0  0  0  0  0
    4.5376   -1.5882    2.3449 H   0  0  0  0  0  0  0  0  0  0  0  0
    3.1669   -2.6164    1.8559 H   0  0  0  0  0  0  0  0  0  0  0  0
    5.1307   -1.2574   -0.0667 H   0  0  0  0  0  0  0  0  0  0  0  0
    5.1850   -2.9645    0.3999 H   0  0  0  0  0  0  0  0  0  0  0  0
    3.8206   -2.3439   -0.5404 H   0  0  0  0  0  0  0  0  0  0  0  0
   -0.3482   -2.2451   -0.1115 H   0  0  0  0  0  0  0  0  0  0  0  0
    0.2195   -2.7954   -1.7255 H   0  0  0  0  0  0  0  0  0  0  0  0
    0.8258    1.8380   -2.6267 H   0  0  0  0  0  0  0  0  0  0  0  0
   -0.8097    1.3899   -3.1760 H   0  0  0  0  0  0  0  0  0  0  0  0
   -0.0720    4.0134   -1.7778 H   0  0  0  0  0  0  0  0  0  0  0  0
   -0.4280    3.8204   -3.5029 H   0  0  0  0  0  0  0  0  0  0  0  0
   -1.6973    3.5499   -2.2996 H   0  0  0  0  0  0  0  0  0  0  0  0
   -1.9606   -0.0444    2.5758 H   0  0  0  0  0  0  0  0  0  0  0  0
   -3.1937    0.7390    1.5398 H   0  0  0  0  0  0  0  0  0  0  0  0
   -2.4125   -2.2213    1.4690 H   0  0  0  0  0  0  0  0  0  0  0  0
   -3.9189   -1.5542    2.1113 H   0  0  0  0  0  0  0  0  0  0  0  0
   -3.5779   -1.4378    0.3779 H   0  0  0  0  0  0  0  0  0  0  0  0
  1  2  1  0  0  0  0
  2  3  1  0  0  0  0
  3  4  2  0  0  0  0
  4  5  2  0  0  0  0
  4  6  2  0  0  0  0
  6  7  1  0  0  0  0
  7  8  1  0  0  0  0
  4  9  1  0  0  0  0
  9 10  1  0  0  0  0
 10 11  1  0  0  0  0
 11 12  1  0  0  0  0
 12 13  2  0  0  0  0
 12 14  2  0  0  0  0
 14 15  1  0  0  0  0
 15 16  1  0  0  0  0
 12 17  2  0  0  0  0
 17 18  1  0  0  0  0
 18 19  1  0  0  0  0
  1 20  1  0  0  0  0
  1 21  1  0  0  0  0
  1 22  1  0  0  0  0
  2 23  1  0  0  0  0
  2 24  1  0  0  0  0
  7 25  1  0  0  0  0
  7 26  1  0  0  0  0
  8 27  1  0  0  0  0
  8 28  1  0  0  0  0
  8 29  1  0  0  0  0
 10 30  1  0  0  0  0
 10 31  1  0  0  0  0
 15 32  1  0  0  0  0
 15 33  1  0  0  0  0
 16 34  1  0  0  0  0
 16 35  1  0  0  0  0
 16 36  1  0  0  0  0
 18 37  1  0  0  0  0
 18 38  1  0  0  0  0
 19 39  1  0  0  0  0
 19 40  1  0  0  0  0
 19 41  1  0  0  0  0
M  END
