 xtb: 6.7.1 (edcfbbe)
          04092505203D

 41 40  0     0  0            999 V2000
    2.9512   -2.4149    2.2825 C   0  0  0  0  0  0  0  0  0  0  0  0
    1.6166   -2.2254    1.5933 C   0  0  0  0  0  0  0  0  0  0  0  0
    1.3973   -0.8489    1.2200 O   0  0  0  0  0  0  0  0  0  0  0  0
    2.2572   -0.1330    0.0960 P   0  0  0  0  0  0  0  0  0  0  0  0
    2.8905   -1.2758   -1.3713 S   0  0  0  0  0  0  0  0  0  0  0  0
    3.3955    0.5615    0.9582 O   0  0  0  0  0  0  0  0  0  0  0  0
    4.5991    1.0846    0.3710 C   0  0  0  0  0  0  0  0  0  0  0  0
    4.3312    2.2993   -0.4943 C   0  0  0  0  0  0  0  0  0  0  0  0
    0.9379    1.4398   -0.4069 S   0  0  0  0  0  0  0  0  0  0  0  0
    0.0212    0.5230   -1.6764 C   0  0  0  0  0  0  0  0  0  0  0  0
   -0.9565   -0.8385   -1.0046 S   0  0  0  0  0  0  0  0  0  0  0  0
   -2.6664    0.2815   -0.3627 P   0  0  0  0  0  0  0  0  0  0  0  0
   -2.8599    2.0605   -1.1557 S   0  0  0  0  0  0  0  0  0  0  0  0
   -2.6771    0.1886    1.2270 O   0  0  0  0  0  0  0  0  0  0  0  0
   -1.6677    0.6790    2.1233 C   0  0  0  0  0  0  0  0  0  0  0  0
   -1.6288    2.1927    2.1901 C   0  0  0  0  0  0  0  0  0  0  0  0
   -3.9100   -0.6034   -0.7359 O   0  0  0  0  0  0  0  0  0  0  0  0
   -3.9967   -2.0498   -0.7201 C   0  0  0  0  0  0  0  0  0  0  0  0
   -3.5694   -2.6612    0.5963 C   0  0  0  0  0  0  0  0  0  0  0  0
    3.0403   -1.7323    3.1235 H   0  0  0  0  0  0  0  0  0  0  0  0
    3.0328   -3.4384    2.6347 H   0  0  0  0  0  0  0  0  0  0  0  0
    3.7609   -2.2171    1.5811 H   0  0  0  0  0  0  0  0  0  0  0  0
    0.7819   -2.4534    2.2573 H   0  0  0  0  0  0  0  0  0  0  0  0
    1.5524   -2.8414    0.6907 H   0  0  0  0  0  0  0  0  0  0  0  0
    5.2241    1.3319    1.2300 H   0  0  0  0  0  0  0  0  0  0  0  0
    5.0703    0.2910   -0.2179 H   0  0  0  0  0  0  0  0  0  0  0  0
    3.7672    3.0437    0.0623 H   0  0  0  0  0  0  0  0  0  0  0  0
    5.2751    2.7275   -0.8162 H   0  0  0  0  0  0  0  0  0  0  0  0
    3.7569    2.0118   -1.3743 H   0  0  0  0  0  0  0  0  0  0  0  0
    0.7248    0.0833   -2.3826 H   0  0  0  0  0  0  0  0  0  0  0  0
   -0.6428    1.2414   -2.1593 H   0  0  0  0  0  0  0  0  0  0  0  0
   -1.9533    0.2516    3.0867 H   0  0  0  0  0  0  0  0  0  0  0  0
   -0.6950    0.2785    1.8217 H   0  0  0  0  0  0  0  0  0  0  0  0
   -2.6166    2.5835    2.4205 H   0  0  0  0  0  0  0  0  0  0  0  0
   -0.9305    2.4969    2.9632 H   0  0  0  0  0  0  0  0  0  0  0  0
   -1.3035    2.6115    1.2396 H   0  0  0  0  0  0  0  0  0  0  0  0
   -5.0521   -2.2349   -0.9263 H   0  0  0  0  0  0  0  0  0  0  0  0
   -3.3859   -2.4312   -1.5423 H   0  0  0  0  0  0  0  0  0  0  0  0
   -3.7651   -3.7288    0.5686 H   0  0  0  0  0  0  0  0  0  0  0  0
   -2.5043   -2.5029    0.7561 H   0  0  0  0  0  0  0  0  0  0  0  0
   -4.1234   -2.2137    1.4172 H   0  0  0  0  0  0  0  0  0  0  0  0
  1  2  1  0  0  0  0
  2  3  1  0  0  0  0
  3  4  2  0  0  0  0
  4  5  2  0  0  0  0
  4  6  2  0  0  0  0
  6  7  1  0  0  0  0
  7  8  1  0  0  0  0
  4  9  1  0  0  0  0
  9 10  1  0  0  0  0
 10 11  1  0  0  0  0
 11 12  1  0  0  0  0
 12 13  2  0  0  0  0
 12 14  2  0  0  0  0
 14 15  1  0  0  0  0
 15 16  1  0  0  0  0
 12 17  2  0  0  0  0
 17 18  1  0  0  0  0
 18 19  1  0  0  0  0
  1 20  1  0  0  0  0
  1 21  1  0  0  0  0
  1 22  1  0  0  0  0
  2 23  1  0  0  0  0
  2 24  1  0  0  0  0
  7 25  1  0  0  0  0
  7 26  1  0  0  0  0
  8 27  1  0  0  0  0
  8 28  1  0  0  0  0
  8 29  1  0  0  0  0
 10 30  1  0  0  0  0
 10 31  1  0  0  0  0
 15 32  1  0  0  0  0
 15 33  1  0  0  0  0
 16 34  1  0  0  0  0
 16 35  1  0  0  0  0
 16 36  1  0  0  0  0
 18 37  1  0  0  0  0
 18 38  1  0  0  0  0
 19 39  1  0  0  0  0
 19 40  1  0  0  0  0
 19 41  1  0  0  0  0
M  END
