 xtb: 6.7.1 (edcfbbe)
          04092514003D

 41 40  0     0  0            999 V2000
    4.9980   -1.6862   -0.7101 C   0  0  0  0  0  0  0  0  0  0  0  0
    4.5349   -0.5798   -1.6359 C   0  0  0  0  0  0  0  0  0  0  0  0
    3.1332   -0.2694   -1.4648 O   0  0  0  0  0  0  0  0  0  0  0  0
    2.6085    0.4531   -0.1500 P   0  0  0  0  0  0  0  0  0  0  0  0
    3.7953    1.8033    0.6264 S   0  0  0  0  0  0  0  0  0  0  0  0
    2.2944   -0.7950    0.7945 O   0  0  0  0  0  0  0  0  0  0  0  0
    2.2512   -0.6766    2.2237 C   0  0  0  0  0  0  0  0  0  0  0  0
    1.0268    0.0798    2.6967 C   0  0  0  0  0  0  0  0  0  0  0  0
    0.7453    1.1663   -0.8452 S   0  0  0  0  0  0  0  0  0  0  0  0
    0.0161   -0.3618   -1.5204 C   0  0  0  0  0  0  0  0  0  0  0  0
   -0.8086   -1.4068   -0.2903 S   0  0  0  0  0  0  0  0  0  0  0  0
   -2.5427   -0.2402   -0.0359 P   0  0  0  0  0  0  0  0  0  0  0  0
   -3.3076    0.6241   -1.6271 S   0  0  0  0  0  0  0  0  0  0  0  0
   -2.0549    0.7190    1.1283 O   0  0  0  0  0  0  0  0  0  0  0  0
   -2.8006    1.8956    1.5170 C   0  0  0  0  0  0  0  0  0  0  0  0
   -2.1084    3.1445    1.0083 C   0  0  0  0  0  0  0  0  0  0  0  0
   -3.5574   -1.1815    0.7518 O   0  0  0  0  0  0  0  0  0  0  0  0
   -4.5614   -1.9867    0.1090 C   0  0  0  0  0  0  0  0  0  0  0  0
   -3.9668   -3.1690   -0.6289 C   0  0  0  0  0  0  0  0  0  0  0  0
    4.3588   -2.5592   -0.8124 H   0  0  0  0  0  0  0  0  0  0  0  0
    6.0195   -1.9559   -0.9615 H   0  0  0  0  0  0  0  0  0  0  0  0
    4.9698   -1.3464    0.3239 H   0  0  0  0  0  0  0  0  0  0  0  0
    4.6114   -0.8732   -2.6836 H   0  0  0  0  0  0  0  0  0  0  0  0
    5.1141    0.3330   -1.4627 H   0  0  0  0  0  0  0  0  0  0  0  0
    2.2488   -1.7090    2.5753 H   0  0  0  0  0  0  0  0  0  0  0  0
    3.1623   -0.1673    2.5564 H   0  0  0  0  0  0  0  0  0  0  0  0
    1.0098    0.0946    3.7817 H   0  0  0  0  0  0  0  0  0  0  0  0
    1.0623    1.1058    2.3295 H   0  0  0  0  0  0  0  0  0  0  0  0
    0.1185   -0.3919    2.3296 H   0  0  0  0  0  0  0  0  0  0  0  0
    0.7966   -0.9603   -1.9802 H   0  0  0  0  0  0  0  0  0  0  0  0
   -0.7192   -0.0322   -2.2554 H   0  0  0  0  0  0  0  0  0  0  0  0
   -3.8193    1.8276    1.1242 H   0  0  0  0  0  0  0  0  0  0  0  0
   -2.8277    1.8695    2.6075 H   0  0  0  0  0  0  0  0  0  0  0  0
   -2.6398    4.0209    1.3655 H   0  0  0  0  0  0  0  0  0  0  0  0
   -1.0819    3.1760    1.3629 H   0  0  0  0  0  0  0  0  0  0  0  0
   -2.0972    3.1526   -0.0796 H   0  0  0  0  0  0  0  0  0  0  0  0
   -5.2022   -2.3091    0.9312 H   0  0  0  0  0  0  0  0  0  0  0  0
   -5.1292   -1.3505   -0.5776 H   0  0  0  0  0  0  0  0  0  0  0  0
   -3.3751   -2.8236   -1.4752 H   0  0  0  0  0  0  0  0  0  0  0  0
   -3.3288   -3.7481    0.0334 H   0  0  0  0  0  0  0  0  0  0  0  0
   -4.7711   -3.7995   -0.9956 H   0  0  0  0  0  0  0  0  0  0  0  0
  1  2  1  0  0  0  0
  2  3  1  0  0  0  0
  3  4  2  0  0  0  0
  4  5  2  0  0  0  0
  4  6  2  0  0  0  0
  6  7  1  0  0  0  0
  7  8  1  0  0  0  0
  4  9  1  0  0  0  0
  9 10  1  0  0  0  0
 10 11  1  0  0  0  0
 11 12  1  0  0  0  0
 12 13  2  0  0  0  0
 12 14  2  0  0  0  0
 14 15  1  0  0  0  0
 15 16  1  0  0  0  0
 12 17  2  0  0  0  0
 17 18  1  0  0  0  0
 18 19  1  0  0  0  0
  1 20  1  0  0  0  0
  1 21  1  0  0  0  0
  1 22  1  0  0  0  0
  2 23  1  0  0  0  0
  2 24  1  0  0  0  0
  7 25  1  0  0  0  0
  7 26  1  0  0  0  0
  8 27  1  0  0  0  0
  8 28  1  0  0  0  0
  8 29  1  0  0  0  0
 10 30  1  0  0  0  0
 10 31  1  0  0  0  0
 15 32  1  0  0  0  0
 15 33  1  0  0  0  0
 16 34  1  0  0  0  0
 16 35  1  0  0  0  0
 16 36  1  0  0  0  0
 18 37  1  0  0  0  0
 18 38  1  0  0  0  0
 19 39  1  0  0  0  0
 19 40  1  0  0  0  0
 19 41  1  0  0  0  0
M  END
