 xtb: 6.7.1 (edcfbbe)
          04092505213D

 41 40  0     0  0            999 V2000
    4.4430    1.5263    0.5709 C   0  0  0  0  0  0  0  0  0  0  0  0
    3.3299    1.3193   -0.4358 C   0  0  0  0  0  0  0  0  0  0  0  0
    2.7256    0.0241   -0.2745 O   0  0  0  0  0  0  0  0  0  0  0  0
    1.6531   -0.2803    0.8706 P   0  0  0  0  0  0  0  0  0  0  0  0
    0.8509    1.3046    1.6823 S   0  0  0  0  0  0  0  0  0  0  0  0
    2.3441   -1.1142    2.0282 O   0  0  0  0  0  0  0  0  0  0  0  0
    2.8754   -2.4570    1.9530 C   0  0  0  0  0  0  0  0  0  0  0  0
    4.0443   -2.5676    0.9969 C   0  0  0  0  0  0  0  0  0  0  0  0
    0.5052   -1.7657   -0.1309 S   0  0  0  0  0  0  0  0  0  0  0  0
    0.3631   -0.9930   -1.7660 C   0  0  0  0  0  0  0  0  0  0  0  0
   -0.2114    0.7236   -1.7224 S   0  0  0  0  0  0  0  0  0  0  0  0
   -2.1551    0.3044   -1.0415 P   0  0  0  0  0  0  0  0  0  0  0  0
   -3.0706   -1.2535   -1.7823 S   0  0  0  0  0  0  0  0  0  0  0  0
   -2.9842    1.6180   -1.3585 O   0  0  0  0  0  0  0  0  0  0  0  0
   -2.4908    2.9765   -1.2723 C   0  0  0  0  0  0  0  0  0  0  0  0
   -2.2097    3.4089    0.1519 C   0  0  0  0  0  0  0  0  0  0  0  0
   -1.8960    0.2468    0.5348 O   0  0  0  0  0  0  0  0  0  0  0  0
   -2.8770   -0.2707    1.4548 C   0  0  0  0  0  0  0  0  0  0  0  0
   -2.4987   -1.6682    1.9032 C   0  0  0  0  0  0  0  0  0  0  0  0
    4.0354    1.4756    1.5802 H   0  0  0  0  0  0  0  0  0  0  0  0
    5.2050    0.7601    0.4571 H   0  0  0  0  0  0  0  0  0  0  0  0
    4.8901    2.5035    0.4191 H   0  0  0  0  0  0  0  0  0  0  0  0
    3.7013    1.3202   -1.4614 H   0  0  0  0  0  0  0  0  0  0  0  0
    2.5571    2.0859   -0.3208 H   0  0  0  0  0  0  0  0  0  0  0  0
    3.1769   -2.6632    2.9815 H   0  0  0  0  0  0  0  0  0  0  0  0
    2.0672   -3.1330    1.6632 H   0  0  0  0  0  0  0  0  0  0  0  0
    3.7204   -2.3663   -0.0214 H   0  0  0  0  0  0  0  0  0  0  0  0
    4.8212   -1.8579    1.2694 H   0  0  0  0  0  0  0  0  0  0  0  0
    4.4473   -3.5744    1.0476 H   0  0  0  0  0  0  0  0  0  0  0  0
   -0.3539   -1.6013   -2.3194 H   0  0  0  0  0  0  0  0  0  0  0  0
    1.3348   -0.9816   -2.2528 H   0  0  0  0  0  0  0  0  0  0  0  0
   -1.5921    3.0562   -1.8898 H   0  0  0  0  0  0  0  0  0  0  0  0
   -3.2975    3.5618   -1.7172 H   0  0  0  0  0  0  0  0  0  0  0  0
   -3.0919    3.2650    0.7709 H   0  0  0  0  0  0  0  0  0  0  0  0
   -1.3846    2.8398    0.5773 H   0  0  0  0  0  0  0  0  0  0  0  0
   -1.9418    4.4608    0.1540 H   0  0  0  0  0  0  0  0  0  0  0  0
   -2.8710    0.4304    2.2918 H   0  0  0  0  0  0  0  0  0  0  0  0
   -3.8597   -0.2663    0.9728 H   0  0  0  0  0  0  0  0  0  0  0  0
   -1.5032   -1.6591    2.3414 H   0  0  0  0  0  0  0  0  0  0  0  0
   -3.2143   -2.0132    2.6423 H   0  0  0  0  0  0  0  0  0  0  0  0
   -2.5018   -2.3492    1.0544 H   0  0  0  0  0  0  0  0  0  0  0  0
  1  2  1  0  0  0  0
  2  3  1  0  0  0  0
  3  4  1  0  0  0  0
  4  5  2  0  0  0  0
  4  6  2  0  0  0  0
  6  7  1  0  0  0  0
  7  8  1  0  0  0  0
  4  9  1  0  0  0  0
  9 10  1  0  0  0  0
 10 11  1  0  0  0  0
 11 12  1  0  0  0  0
 12 13  2  0  0  0  0
 12 14  2  0  0  0  0
 14 15  1  0  0  0  0
 15 16  1  0  0  0  0
 12 17  1  0  0  0  0
 17 18  1  0  0  0  0
 18 19  1  0  0  0  0
  1 20  1  0  0  0  0
  1 21  1  0  0  0  0
  1 22  1  0  0  0  0
  2 23  1  0  0  0  0
  2 24  1  0  0  0  0
  7 25  1  0  0  0  0
  7 26  1  0  0  0  0
  8 27  1  0  0  0  0
  8 28  1  0  0  0  0
  8 29  1  0  0  0  0
 10 30  1  0  0  0  0
 10 31  1  0  0  0  0
 15 32  1  0  0  0  0
 15 33  1  0  0  0  0
 16 34  1  0  0  0  0
 16 35  1  0  0  0  0
 16 36  1  0  0  0  0
 18 37  1  0  0  0  0
 18 38  1  0  0  0  0
 19 39  1  0  0  0  0
 19 40  1  0  0  0  0
 19 41  1  0  0  0  0
M  END
