 xtb: 6.7.1 (edcfbbe)
          04112505053D

 41 40  0     0  0            999 V2000
    5.5091   -1.9751   -0.5106 C   0  0  0  0  0  0  0  0  0  0  0  0
    4.3284   -1.1918   -1.0474 C   0  0  0  0  0  0  0  0  0  0  0  0
    3.4438   -0.9123    0.0583 O   0  0  0  0  0  0  0  0  0  0  0  0
    2.3213    0.2045   -0.0559 P   0  0  0  0  0  0  0  0  0  0  0  0
    2.9311    1.9711   -0.6252 S   0  0  0  0  0  0  0  0  0  0  0  0
    1.6915    0.2139    1.3852 O   0  0  0  0  0  0  0  0  0  0  0  0
    1.2924   -0.9941    2.0798 C   0  0  0  0  0  0  0  0  0  0  0  0
    2.3655   -1.4255    3.0574 C   0  0  0  0  0  0  0  0  0  0  0  0
    0.8873   -0.7287   -1.3459 S   0  0  0  0  0  0  0  0  0  0  0  0
    0.0708    0.7966   -1.8614 C   0  0  0  0  0  0  0  0  0  0  0  0
   -0.7950    1.6287   -0.5047 S   0  0  0  0  0  0  0  0  0  0  0  0
   -2.3600    0.2110   -0.3371 P   0  0  0  0  0  0  0  0  0  0  0  0
   -3.0260   -0.5975   -1.9826 S   0  0  0  0  0  0  0  0  0  0  0  0
   -3.4979    1.0014    0.4307 O   0  0  0  0  0  0  0  0  0  0  0  0
   -3.2602    1.6798    1.6892 C   0  0  0  0  0  0  0  0  0  0  0  0
   -4.6070    1.9447    2.3294 C   0  0  0  0  0  0  0  0  0  0  0  0
   -1.7026   -0.8014    0.7163 O   0  0  0  0  0  0  0  0  0  0  0  0
   -2.1352   -2.1758    0.7920 C   0  0  0  0  0  0  0  0  0  0  0  0
   -3.5215   -2.2857    1.3932 C   0  0  0  0  0  0  0  0  0  0  0  0
    6.1845   -2.2035   -1.3283 H   0  0  0  0  0  0  0  0  0  0  0  0
    6.0374   -1.3890    0.2362 H   0  0  0  0  0  0  0  0  0  0  0  0
    5.1675   -2.9014   -0.0580 H   0  0  0  0  0  0  0  0  0  0  0  0
    3.7709   -1.7657   -1.7924 H   0  0  0  0  0  0  0  0  0  0  0  0
    4.6440   -0.2410   -1.4888 H   0  0  0  0  0  0  0  0  0  0  0  0
    0.3678   -0.7212    2.5918 H   0  0  0  0  0  0  0  0  0  0  0  0
    1.0900   -1.7745    1.3407 H   0  0  0  0  0  0  0  0  0  0  0  0
    2.0161   -2.2913    3.6112 H   0  0  0  0  0  0  0  0  0  0  0  0
    3.2765   -1.6829    2.5241 H   0  0  0  0  0  0  0  0  0  0  0  0
    2.5821   -0.6178    3.7511 H   0  0  0  0  0  0  0  0  0  0  0  0
   -0.6436    0.5269   -2.6394 H   0  0  0  0  0  0  0  0  0  0  0  0
    0.8185    1.5009   -2.2263 H   0  0  0  0  0  0  0  0  0  0  0  0
   -2.6313    1.0446    2.3182 H   0  0  0  0  0  0  0  0  0  0  0  0
   -2.7266    2.6092    1.4736 H   0  0  0  0  0  0  0  0  0  0  0  0
   -5.1208    1.0082    2.5273 H   0  0  0  0  0  0  0  0  0  0  0  0
   -4.4591    2.4795    3.2620 H   0  0  0  0  0  0  0  0  0  0  0  0
   -5.2206    2.5447    1.6638 H   0  0  0  0  0  0  0  0  0  0  0  0
   -2.1152   -2.6011   -0.2160 H   0  0  0  0  0  0  0  0  0  0  0  0
   -1.3822   -2.6606    1.4145 H   0  0  0  0  0  0  0  0  0  0  0  0
   -3.8014   -3.3320    1.4645 H   0  0  0  0  0  0  0  0  0  0  0  0
   -3.5441   -1.8391    2.3840 H   0  0  0  0  0  0  0  0  0  0  0  0
   -4.2394   -1.7708    0.7546 H   0  0  0  0  0  0  0  0  0  0  0  0
  1  2  1  0  0  0  0
  2  3  1  0  0  0  0
  3  4  2  0  0  0  0
  4  5  2  0  0  0  0
  4  6  2  0  0  0  0
  6  7  1  0  0  0  0
  7  8  1  0  0  0  0
  4  9  1  0  0  0  0
  9 10  1  0  0  0  0
 10 11  1  0  0  0  0
 11 12  1  0  0  0  0
 12 13  2  0  0  0  0
 12 14  2  0  0  0  0
 14 15  1  0  0  0  0
 15 16  1  0  0  0  0
 12 17  1  0  0  0  0
 17 18  1  0  0  0  0
 18 19  1  0  0  0  0
  1 20  1  0  0  0  0
  1 21  1  0  0  0  0
  1 22  1  0  0  0  0
  2 23  1  0  0  0  0
  2 24  1  0  0  0  0
  7 25  1  0  0  0  0
  7 26  1  0  0  0  0
  8 27  1  0  0  0  0
  8 28  1  0  0  0  0
  8 29  1  0  0  0  0
 10 30  1  0  0  0  0
 10 31  1  0  0  0  0
 15 32  1  0  0  0  0
 15 33  1  0  0  0  0
 16 34  1  0  0  0  0
 16 35  1  0  0  0  0
 16 36  1  0  0  0  0
 18 37  1  0  0  0  0
 18 38  1  0  0  0  0
 19 39  1  0  0  0  0
 19 40  1  0  0  0  0
 19 41  1  0  0  0  0
M  END
