 xtb: 6.7.1 (edcfbbe)
          04092513593D

 41 40  0     0  0            999 V2000
    2.7272   -2.7849    1.3213 C   0  0  0  0  0  0  0  0  0  0  0  0
    1.6496   -2.0558    0.5435 C   0  0  0  0  0  0  0  0  0  0  0  0
    1.7880   -0.6407    0.7469 O   0  0  0  0  0  0  0  0  0  0  0  0
    2.3062    0.3962   -0.3487 P   0  0  0  0  0  0  0  0  0  0  0  0
    3.0635   -0.3921   -1.9648 S   0  0  0  0  0  0  0  0  0  0  0  0
    3.3475    1.2997    0.4166 O   0  0  0  0  0  0  0  0  0  0  0  0
    3.0624    2.0839    1.6021 C   0  0  0  0  0  0  0  0  0  0  0  0
    3.2612    1.2697    2.8648 C   0  0  0  0  0  0  0  0  0  0  0  0
    0.6558    1.7265   -0.6144 S   0  0  0  0  0  0  0  0  0  0  0  0
   -0.0969    0.8728   -2.0160 C   0  0  0  0  0  0  0  0  0  0  0  0
   -0.7070   -0.7854   -1.5978 S   0  0  0  0  0  0  0  0  0  0  0  0
   -2.1316   -0.2014   -0.1536 P   0  0  0  0  0  0  0  0  0  0  0  0
   -3.0743    1.4956   -0.4494 S   0  0  0  0  0  0  0  0  0  0  0  0
   -1.2964   -0.3525    1.1796 O   0  0  0  0  0  0  0  0  0  0  0  0
   -1.7522    0.1940    2.4424 C   0  0  0  0  0  0  0  0  0  0  0  0
   -0.9404    1.4219    2.8014 C   0  0  0  0  0  0  0  0  0  0  0  0
   -3.0892   -1.4672   -0.0497 O   0  0  0  0  0  0  0  0  0  0  0  0
   -4.1579   -1.7095   -0.9872 C   0  0  0  0  0  0  0  0  0  0  0  0
   -5.1370   -2.6703   -0.3426 C   0  0  0  0  0  0  0  0  0  0  0  0
    2.6739   -2.5248    2.3748 H   0  0  0  0  0  0  0  0  0  0  0  0
    2.5875   -3.8549    1.2071 H   0  0  0  0  0  0  0  0  0  0  0  0
    3.7075   -2.5102    0.9375 H   0  0  0  0  0  0  0  0  0  0  0  0
    0.6477   -2.3106    0.8960 H   0  0  0  0  0  0  0  0  0  0  0  0
    1.7257   -2.2764   -0.5264 H   0  0  0  0  0  0  0  0  0  0  0  0
    3.7725    2.9108    1.5469 H   0  0  0  0  0  0  0  0  0  0  0  0
    2.0431    2.4727    1.5300 H   0  0  0  0  0  0  0  0  0  0  0  0
    2.5493    0.4496    2.9059 H   0  0  0  0  0  0  0  0  0  0  0  0
    4.2674    0.8599    2.8878 H   0  0  0  0  0  0  0  0  0  0  0  0
    3.1172    1.9138    3.7269 H   0  0  0  0  0  0  0  0  0  0  0  0
    0.6398    0.7336   -2.8073 H   0  0  0  0  0  0  0  0  0  0  0  0
   -0.9268    1.4965   -2.3461 H   0  0  0  0  0  0  0  0  0  0  0  0
   -2.8164    0.4342    2.3690 H   0  0  0  0  0  0  0  0  0  0  0  0
   -1.6065   -0.6095    3.1661 H   0  0  0  0  0  0  0  0  0  0  0  0
   -1.2274    1.7650    3.7902 H   0  0  0  0  0  0  0  0  0  0  0  0
    0.1186    1.1791    2.7967 H   0  0  0  0  0  0  0  0  0  0  0  0
   -1.1210    2.2161    2.0798 H   0  0  0  0  0  0  0  0  0  0  0  0
   -4.6333   -0.7532   -1.2299 H   0  0  0  0  0  0  0  0  0  0  0  0
   -3.7224   -2.1344   -1.8954 H   0  0  0  0  0  0  0  0  0  0  0  0
   -4.6281   -3.5906   -0.0710 H   0  0  0  0  0  0  0  0  0  0  0  0
   -5.5658   -2.2272    0.5517 H   0  0  0  0  0  0  0  0  0  0  0  0
   -5.9314   -2.8935   -1.0473 H   0  0  0  0  0  0  0  0  0  0  0  0
  1  2  1  0  0  0  0
  2  3  1  0  0  0  0
  3  4  2  0  0  0  0
  4  5  2  0  0  0  0
  4  6  2  0  0  0  0
  6  7  1  0  0  0  0
  7  8  1  0  0  0  0
  4  9  1  0  0  0  0
  9 10  1  0  0  0  0
 10 11  1  0  0  0  0
 11 12  1  0  0  0  0
 12 13  2  0  0  0  0
 12 14  2  0  0  0  0
 14 15  1  0  0  0  0
 15 16  1  0  0  0  0
 12 17  2  0  0  0  0
 17 18  1  0  0  0  0
 18 19  1  0  0  0  0
  1 20  1  0  0  0  0
  1 21  1  0  0  0  0
  1 22  1  0  0  0  0
  2 23  1  0  0  0  0
  2 24  1  0  0  0  0
  7 25  1  0  0  0  0
  7 26  1  0  0  0  0
  8 27  1  0  0  0  0
  8 28  1  0  0  0  0
  8 29  1  0  0  0  0
 10 30  1  0  0  0  0
 10 31  1  0  0  0  0
 15 32  1  0  0  0  0
 15 33  1  0  0  0  0
 16 34  1  0  0  0  0
 16 35  1  0  0  0  0
 16 36  1  0  0  0  0
 18 37  1  0  0  0  0
 18 38  1  0  0  0  0
 19 39  1  0  0  0  0
 19 40  1  0  0  0  0
 19 41  1  0  0  0  0
M  END
