41
 xtb: 6.7.1 (edcfbbe)
C            3.43836033264440       -0.42714732504444       -2.77047432708482
C            2.18496712431647        0.22445688320209       -2.23867775321653
O            1.62411603847621       -0.51762894989525       -1.09940017523476
P            2.33085987805888       -0.49749916564522        0.34266391511036
S            3.19491439132767        1.16687183541239        0.87046073413158
O            3.25138763881946       -1.81721373680163        0.26414587852056
C            4.46396127766253       -2.00067259064621        1.07445459652271
C            4.14163224272799       -2.44669882932701        2.47853283326545
S            0.77472790358784       -1.19349790550299        1.59538145034095
C           -0.16653618399336        0.37090694533127        1.90653038616351
S           -1.96928959769587        0.19818788174418        1.65069594721721
P           -2.29190124098109        0.98130322929347       -0.31290650069780
S           -0.89469861034267        2.16114885888354       -0.96969242207207
O           -3.78318035215497        1.55905141786828       -0.16432173814214
C           -3.99759501801451        2.87069633714969        0.46675960832068
C           -5.48124542699454        3.02386973495767        0.67419140423325
O           -2.69735922405087       -0.27162957359022       -1.23412988152388
C           -1.65409503632950       -1.22005243864134       -1.64735785830602
C           -2.34737111613971       -2.41026558387855       -2.25622084685310
H            4.25893220450987       -0.37544684817594       -2.04823445267621
H            3.25630097617184       -1.47418505091198       -3.02910546241019
H            3.74984972061275        0.10353207256865       -3.67619567160145
H            1.37802174258242        0.20902605541245       -2.97400744241343
H            2.35983751533008        1.25730445762113       -1.92282394050613
H            5.02137619396497       -2.76395954427048        0.52781422805759
H            5.03066248004404       -1.06502254298323        1.06019137882946
H            3.52404489949661       -3.34965700490689        2.47173259239753
H            5.07994689573171       -2.67549490553809        2.99450976686445
H            3.62523971358450       -1.66430091672439        3.04187716713477
H            0.21803290166987        1.17738012612880        1.27275069387045
H           -0.03135006739264        0.63977244488804        2.95631579077199
H           -3.45128996607753        2.89808185175286        1.41560204958256
H           -3.59603645997314        3.63530692446677       -0.20421766359637
H           -6.01640717199965        2.97163345856787       -0.27806061017997
H           -5.86560552848478        2.25069645285821        1.34515366822514
H           -5.67428756212734        4.00171888612808        1.12566228208418
H           -1.00120570647744       -0.71249841017681       -2.36386755911096
H           -1.06994701130592       -1.50545328277672       -0.76487172307356
H           -2.94868104309068       -2.11398144169030       -3.12028756883223
H           -1.58968542876065       -3.12530491387230       -2.59088596351046
H           -2.99075989024305       -2.90559243310490       -1.52363575982436
