 xtb: 6.7.1 (edcfbbe)
          04092505213D

 41 40  0     0  0            999 V2000
    1.4869   -2.5542   -2.3067 C   0  0  0  0  0  0  0  0  0  0  0  0
    1.8808   -2.5440   -0.8429 C   0  0  0  0  0  0  0  0  0  0  0  0
    2.8520   -1.5107   -0.5830 O   0  0  0  0  0  0  0  0  0  0  0  0
    2.4630   -0.0406   -0.1211 P   0  0  0  0  0  0  0  0  0  0  0  0
    1.3011    1.0083   -1.3019 S   0  0  0  0  0  0  0  0  0  0  0  0
    3.8766    0.6385   -0.0031 O   0  0  0  0  0  0  0  0  0  0  0  0
    5.0944   -0.0199    0.4288 C   0  0  0  0  0  0  0  0  0  0  0  0
    5.0203   -0.4941    1.8642 C   0  0  0  0  0  0  0  0  0  0  0  0
    1.7263   -0.3072    1.8742 S   0  0  0  0  0  0  0  0  0  0  0  0
    0.0794    0.3964    1.7218 C   0  0  0  0  0  0  0  0  0  0  0  0
   -1.0277   -0.6642    0.7366 S   0  0  0  0  0  0  0  0  0  0  0  0
   -2.4062    0.8435    0.1349 P   0  0  0  0  0  0  0  0  0  0  0  0
   -1.7334    2.6815    0.1283 S   0  0  0  0  0  0  0  0  0  0  0  0
   -3.6226    0.7199    1.1282 O   0  0  0  0  0  0  0  0  0  0  0  0
   -4.3591   -0.5128    1.3355 C   0  0  0  0  0  0  0  0  0  0  0  0
   -5.6065   -0.5460    0.4769 C   0  0  0  0  0  0  0  0  0  0  0  0
   -3.0134    0.2910   -1.2218 O   0  0  0  0  0  0  0  0  0  0  0  0
   -2.2243    0.0351   -2.4030 C   0  0  0  0  0  0  0  0  0  0  0  0
   -2.1201   -1.4611   -2.6268 C   0  0  0  0  0  0  0  0  0  0  0  0
    1.0290   -1.6051   -2.5758 H   0  0  0  0  0  0  0  0  0  0  0  0
    2.3646   -2.7046   -2.9290 H   0  0  0  0  0  0  0  0  0  0  0  0
    0.7784   -3.3569   -2.4825 H   0  0  0  0  0  0  0  0  0  0  0  0
    2.3858   -3.4694   -0.5597 H   0  0  0  0  0  0  0  0  0  0  0  0
    1.0075   -2.3927   -0.2003 H   0  0  0  0  0  0  0  0  0  0  0  0
    5.2898   -0.8511   -0.2505 H   0  0  0  0  0  0  0  0  0  0  0  0
    5.8519    0.7545    0.2991 H   0  0  0  0  0  0  0  0  0  0  0  0
    5.9860   -0.8973    2.1531 H   0  0  0  0  0  0  0  0  0  0  0  0
    4.7647    0.3304    2.5248 H   0  0  0  0  0  0  0  0  0  0  0  0
    4.2654   -1.2713    1.9700 H   0  0  0  0  0  0  0  0  0  0  0  0
    0.1275    1.3741    1.2344 H   0  0  0  0  0  0  0  0  0  0  0  0
   -0.3084    0.4798    2.7344 H   0  0  0  0  0  0  0  0  0  0  0  0
   -3.7011   -1.3587    1.1160 H   0  0  0  0  0  0  0  0  0  0  0  0
   -4.6081   -0.5033    2.3980 H   0  0  0  0  0  0  0  0  0  0  0  0
   -5.3404   -0.5275   -0.5763 H   0  0  0  0  0  0  0  0  0  0  0  0
   -6.1617   -1.4534    0.6928 H   0  0  0  0  0  0  0  0  0  0  0  0
   -6.2298    0.3173    0.6932 H   0  0  0  0  0  0  0  0  0  0  0  0
   -2.7567    0.5265   -3.2195 H   0  0  0  0  0  0  0  0  0  0  0  0
   -1.2383    0.4970   -2.2939 H   0  0  0  0  0  0  0  0  0  0  0  0
   -1.6055   -1.9301   -1.7914 H   0  0  0  0  0  0  0  0  0  0  0  0
   -3.1127   -1.8923   -2.7192 H   0  0  0  0  0  0  0  0  0  0  0  0
   -1.5623   -1.6438   -3.5394 H   0  0  0  0  0  0  0  0  0  0  0  0
  1  2  1  0  0  0  0
  2  3  1  0  0  0  0
  3  4  2  0  0  0  0
  4  5  2  0  0  0  0
  4  6  2  0  0  0  0
  6  7  1  0  0  0  0
  7  8  1  0  0  0  0
  4  9  1  0  0  0  0
  9 10  1  0  0  0  0
 10 11  1  0  0  0  0
 11 12  1  0  0  0  0
 12 13  2  0  0  0  0
 12 14  2  0  0  0  0
 14 15  1  0  0  0  0
 15 16  1  0  0  0  0
 12 17  2  0  0  0  0
 17 18  1  0  0  0  0
 18 19  1  0  0  0  0
  1 20  1  0  0  0  0
  1 21  1  0  0  0  0
  1 22  1  0  0  0  0
  2 23  1  0  0  0  0
  2 24  1  0  0  0  0
  7 25  1  0  0  0  0
  7 26  1  0  0  0  0
  8 27  1  0  0  0  0
  8 28  1  0  0  0  0
  8 29  1  0  0  0  0
 10 30  1  0  0  0  0
 10 31  1  0  0  0  0
 15 32  1  0  0  0  0
 15 33  1  0  0  0  0
 16 34  1  0  0  0  0
 16 35  1  0  0  0  0
 16 36  1  0  0  0  0
 18 37  1  0  0  0  0
 18 38  1  0  0  0  0
 19 39  1  0  0  0  0
 19 40  1  0  0  0  0
 19 41  1  0  0  0  0
M  END
