10
 xtb: 6.7.1 (edcfbbe)
C           -0.70951768953841       -0.57363766118387       -0.26044016986888
C            0.70225589378547       -0.57076951753073        0.28744239834153
O            1.47514643544118        0.55343112352880       -0.16339696044911
O           -1.46623983953506        0.58136845671133        0.13691792896926
H           -1.21082283619048       -1.49919110818646        0.05879128283431
H           -0.68679169683619       -0.55884187962974       -1.35576013145800
H            1.19027514465024       -1.51739211596814        0.01244479493383
H            0.67988947468524       -0.50391632282684        1.38081318848334
H            1.54673901744224        0.48622494451228       -1.12476843941621
H           -1.54320930318463        0.55748809058655        1.09996242910167
