 xtb: 6.7.1 (edcfbbe)
          04092513573D

 41 40  0     0  0            999 V2000
    2.9165   -0.4500    3.3031 C   0  0  0  0  0  0  0  0  0  0  0  0
    1.5888   -0.7088    2.6234 C   0  0  0  0  0  0  0  0  0  0  0  0
    1.4477    0.0707    1.4146 O   0  0  0  0  0  0  0  0  0  0  0  0
    2.2465   -0.2684    0.0931 P   0  0  0  0  0  0  0  0  0  0  0  0
    2.7046   -2.1551   -0.1959 S   0  0  0  0  0  0  0  0  0  0  0  0
    3.4812    0.7247    0.1972 O   0  0  0  0  0  0  0  0  0  0  0  0
    4.5607    0.7141   -0.7596 C   0  0  0  0  0  0  0  0  0  0  0  0
    5.7354    1.4513   -0.1474 C   0  0  0  0  0  0  0  0  0  0  0  0
    1.0173    0.6362   -1.3759 S   0  0  0  0  0  0  0  0  0  0  0  0
   -0.0361   -0.8047   -1.7071 C   0  0  0  0  0  0  0  0  0  0  0  0
   -1.1481   -1.2154   -0.3432 S   0  0  0  0  0  0  0  0  0  0  0  0
   -2.4553    0.4631   -0.5695 P   0  0  0  0  0  0  0  0  0  0  0  0
   -2.8544    0.9504   -2.4183 S   0  0  0  0  0  0  0  0  0  0  0  0
   -1.7836    1.6410    0.2305 O   0  0  0  0  0  0  0  0  0  0  0  0
   -1.4816    1.5603    1.6458 C   0  0  0  0  0  0  0  0  0  0  0  0
   -2.4907    2.3559    2.4467 C   0  0  0  0  0  0  0  0  0  0  0  0
   -3.7040    0.1039    0.3441 O   0  0  0  0  0  0  0  0  0  0  0  0
   -4.7554   -0.7937   -0.0671 C   0  0  0  0  0  0  0  0  0  0  0  0
   -4.5741   -2.1661    0.5517 C   0  0  0  0  0  0  0  0  0  0  0  0
    2.9415   -0.9761    4.2525 H   0  0  0  0  0  0  0  0  0  0  0  0
    3.7307   -0.8112    2.6764 H   0  0  0  0  0  0  0  0  0  0  0  0
    3.0508    0.6145    3.4751 H   0  0  0  0  0  0  0  0  0  0  0  0
    0.7493   -0.3884    3.2416 H   0  0  0  0  0  0  0  0  0  0  0  0
    1.4808   -1.7678    2.3681 H   0  0  0  0  0  0  0  0  0  0  0  0
    4.8147   -0.3263   -0.9891 H   0  0  0  0  0  0  0  0  0  0  0  0
    4.2142    1.2064   -1.6725 H   0  0  0  0  0  0  0  0  0  0  0  0
    5.4420    2.4643    0.1126 H   0  0  0  0  0  0  0  0  0  0  0  0
    6.0749    0.9413    0.7494 H   0  0  0  0  0  0  0  0  0  0  0  0
    6.5469    1.4865   -0.8671 H   0  0  0  0  0  0  0  0  0  0  0  0
    0.5901   -1.6808   -1.8755 H   0  0  0  0  0  0  0  0  0  0  0  0
   -0.6253   -0.5576   -2.5909 H   0  0  0  0  0  0  0  0  0  0  0  0
   -1.4767    0.5085    1.9457 H   0  0  0  0  0  0  0  0  0  0  0  0
   -0.4748    1.9729    1.7405 H   0  0  0  0  0  0  0  0  0  0  0  0
   -3.4837    1.9301    2.3289 H   0  0  0  0  0  0  0  0  0  0  0  0
   -2.2105    2.3316    3.4952 H   0  0  0  0  0  0  0  0  0  0  0  0
   -2.5078    3.3865    2.1032 H   0  0  0  0  0  0  0  0  0  0  0  0
   -5.6744   -0.3221    0.2868 H   0  0  0  0  0  0  0  0  0  0  0  0
   -4.7740   -0.8429   -1.1602 H   0  0  0  0  0  0  0  0  0  0  0  0
   -3.6661   -2.6380    0.1835 H   0  0  0  0  0  0  0  0  0  0  0  0
   -4.5122   -2.0817    1.6330 H   0  0  0  0  0  0  0  0  0  0  0  0
   -5.4274   -2.7847    0.2918 H   0  0  0  0  0  0  0  0  0  0  0  0
  1  2  1  0  0  0  0
  2  3  1  0  0  0  0
  3  4  2  0  0  0  0
  4  5  2  0  0  0  0
  4  6  2  0  0  0  0
  6  7  1  0  0  0  0
  7  8  1  0  0  0  0
  4  9  1  0  0  0  0
  9 10  1  0  0  0  0
 10 11  1  0  0  0  0
 11 12  1  0  0  0  0
 12 13  2  0  0  0  0
 12 14  2  0  0  0  0
 14 15  1  0  0  0  0
 15 16  1  0  0  0  0
 12 17  2  0  0  0  0
 17 18  1  0  0  0  0
 18 19  1  0  0  0  0
  1 20  1  0  0  0  0
  1 21  1  0  0  0  0
  1 22  1  0  0  0  0
  2 23  1  0  0  0  0
  2 24  1  0  0  0  0
  7 25  1  0  0  0  0
  7 26  1  0  0  0  0
  8 27  1  0  0  0  0
  8 28  1  0  0  0  0
  8 29  1  0  0  0  0
 10 30  1  0  0  0  0
 10 31  1  0  0  0  0
 15 32  1  0  0  0  0
 15 33  1  0  0  0  0
 16 34  1  0  0  0  0
 16 35  1  0  0  0  0
 16 36  1  0  0  0  0
 18 37  1  0  0  0  0
 18 38  1  0  0  0  0
 19 39  1  0  0  0  0
 19 40  1  0  0  0  0
 19 41  1  0  0  0  0
M  END
