 xtb: 6.7.1 (edcfbbe)
          04092514013D

 41 40  0     0  0            999 V2000
    5.8092    0.8944   -1.3278 C   0  0  0  0  0  0  0  0  0  0  0  0
    4.6045    1.1838   -0.4539 C   0  0  0  0  0  0  0  0  0  0  0  0
    3.5813    0.2123   -0.7646 O   0  0  0  0  0  0  0  0  0  0  0  0
    2.3806   -0.1104    0.2227 P   0  0  0  0  0  0  0  0  0  0  0  0
    2.8919   -0.4022    2.0948 S   0  0  0  0  0  0  0  0  0  0  0  0
    1.6685   -1.3165   -0.5084 O   0  0  0  0  0  0  0  0  0  0  0  0
    1.8599   -2.6936   -0.1291 C   0  0  0  0  0  0  0  0  0  0  0  0
    3.1678   -3.2429   -0.6582 C   0  0  0  0  0  0  0  0  0  0  0  0
    1.0063    1.4492   -0.1447 S   0  0  0  0  0  0  0  0  0  0  0  0
   -0.0088    1.2428    1.3462 C   0  0  0  0  0  0  0  0  0  0  0  0
   -0.9945   -0.2837    1.3945 S   0  0  0  0  0  0  0  0  0  0  0  0
   -2.2374   -0.0466   -0.3102 P   0  0  0  0  0  0  0  0  0  0  0  0
   -1.5621   -0.5365   -2.0753 S   0  0  0  0  0  0  0  0  0  0  0  0
   -2.6625    1.4831   -0.1182 O   0  0  0  0  0  0  0  0  0  0  0  0
   -3.1369    2.2743   -1.2280 C   0  0  0  0  0  0  0  0  0  0  0  0
   -4.5389    1.8736   -1.6414 C   0  0  0  0  0  0  0  0  0  0  0  0
   -3.4924   -0.9437    0.0604 O   0  0  0  0  0  0  0  0  0  0  0  0
   -4.3220   -0.7017    1.2272 C   0  0  0  0  0  0  0  0  0  0  0  0
   -5.7283   -1.1725    0.9135 C   0  0  0  0  0  0  0  0  0  0  0  0
    5.5258    0.9345   -2.3756 H   0  0  0  0  0  0  0  0  0  0  0  0
    6.5753    1.6385   -1.1343 H   0  0  0  0  0  0  0  0  0  0  0  0
    6.2069   -0.0925   -1.1088 H   0  0  0  0  0  0  0  0  0  0  0  0
    4.2008    2.1800   -0.6531 H   0  0  0  0  0  0  0  0  0  0  0  0
    4.8523    1.1026    0.6099 H   0  0  0  0  0  0  0  0  0  0  0  0
    1.8200   -2.7623    0.9637 H   0  0  0  0  0  0  0  0  0  0  0  0
    0.9991   -3.2057   -0.5627 H   0  0  0  0  0  0  0  0  0  0  0  0
    3.2230   -4.3046   -0.4371 H   0  0  0  0  0  0  0  0  0  0  0  0
    3.2290   -3.0935   -1.7329 H   0  0  0  0  0  0  0  0  0  0  0  0
    4.0051   -2.7355   -0.1814 H   0  0  0  0  0  0  0  0  0  0  0  0
   -0.6689    2.1041    1.3934 H   0  0  0  0  0  0  0  0  0  0  0  0
    0.6398    1.1881    2.2215 H   0  0  0  0  0  0  0  0  0  0  0  0
   -3.1014    3.2994   -0.8569 H   0  0  0  0  0  0  0  0  0  0  0  0
   -2.4401    2.1552   -2.0632 H   0  0  0  0  0  0  0  0  0  0  0  0
   -4.8767    2.5276   -2.4395 H   0  0  0  0  0  0  0  0  0  0  0  0
   -4.5369    0.8464   -2.0056 H   0  0  0  0  0  0  0  0  0  0  0  0
   -5.2233    1.9540   -0.8006 H   0  0  0  0  0  0  0  0  0  0  0  0
   -3.8904   -1.2623    2.0592 H   0  0  0  0  0  0  0  0  0  0  0  0
   -4.3008    0.3655    1.4613 H   0  0  0  0  0  0  0  0  0  0  0  0
   -6.3536   -1.0273    1.7889 H   0  0  0  0  0  0  0  0  0  0  0  0
   -6.1416   -0.6108    0.0803 H   0  0  0  0  0  0  0  0  0  0  0  0
   -5.7181   -2.2264    0.6510 H   0  0  0  0  0  0  0  0  0  0  0  0
  1  2  1  0  0  0  0
  2  3  1  0  0  0  0
  3  4  2  0  0  0  0
  4  5  2  0  0  0  0
  4  6  2  0  0  0  0
  6  7  1  0  0  0  0
  7  8  1  0  0  0  0
  4  9  1  0  0  0  0
  9 10  1  0  0  0  0
 10 11  1  0  0  0  0
 11 12  1  0  0  0  0
 12 13  2  0  0  0  0
 12 14  1  0  0  0  0
 14 15  1  0  0  0  0
 15 16  1  0  0  0  0
 12 17  2  0  0  0  0
 17 18  1  0  0  0  0
 18 19  1  0  0  0  0
  1 20  1  0  0  0  0
  1 21  1  0  0  0  0
  1 22  1  0  0  0  0
  2 23  1  0  0  0  0
  2 24  1  0  0  0  0
  7 25  1  0  0  0  0
  7 26  1  0  0  0  0
  8 27  1  0  0  0  0
  8 28  1  0  0  0  0
  8 29  1  0  0  0  0
 10 30  1  0  0  0  0
 10 31  1  0  0  0  0
 15 32  1  0  0  0  0
 15 33  1  0  0  0  0
 16 34  1  0  0  0  0
 16 35  1  0  0  0  0
 16 36  1  0  0  0  0
 18 37  1  0  0  0  0
 18 38  1  0  0  0  0
 19 39  1  0  0  0  0
 19 40  1  0  0  0  0
 19 41  1  0  0  0  0
M  END
