 xtb: 6.7.1 (edcfbbe)
          04092505213D

 41 40  0     0  0            999 V2000
    4.5512    1.5033    0.1725 C   0  0  0  0  0  0  0  0  0  0  0  0
    3.4219    1.2501   -0.8054 C   0  0  0  0  0  0  0  0  0  0  0  0
    2.7660   -0.0017   -0.5318 O   0  0  0  0  0  0  0  0  0  0  0  0
    1.7724   -0.1814    0.7103 P   0  0  0  0  0  0  0  0  0  0  0  0
    0.9680    1.4610    1.3976 S   0  0  0  0  0  0  0  0  0  0  0  0
    2.5914   -0.8558    1.8888 O   0  0  0  0  0  0  0  0  0  0  0  0
    3.4088   -2.0409    1.7277 C   0  0  0  0  0  0  0  0  0  0  0  0
    2.7278   -3.2420    2.3526 C   0  0  0  0  0  0  0  0  0  0  0  0
    0.6359   -1.7998   -0.0561 S   0  0  0  0  0  0  0  0  0  0  0  0
    0.3110   -1.2062   -1.7432 C   0  0  0  0  0  0  0  0  0  0  0  0
   -0.1844    0.5328   -1.8324 S   0  0  0  0  0  0  0  0  0  0  0  0
   -2.1053    0.2928   -1.0085 P   0  0  0  0  0  0  0  0  0  0  0  0
   -3.2315   -1.1065   -1.7683 S   0  0  0  0  0  0  0  0  0  0  0  0
   -2.7787    1.7172   -1.1682 O   0  0  0  0  0  0  0  0  0  0  0  0
   -2.2099    2.9284   -0.6029 C   0  0  0  0  0  0  0  0  0  0  0  0
   -3.2524    3.6020    0.2658 C   0  0  0  0  0  0  0  0  0  0  0  0
   -1.7198    0.1248    0.5339 O   0  0  0  0  0  0  0  0  0  0  0  0
   -2.6944   -0.3033    1.5094 C   0  0  0  0  0  0  0  0  0  0  0  0
   -2.5390   -1.7805    1.8086 C   0  0  0  0  0  0  0  0  0  0  0  0
    5.0477    2.4338   -0.0835 H   0  0  0  0  0  0  0  0  0  0  0  0
    4.1501    1.5828    1.1827 H   0  0  0  0  0  0  0  0  0  0  0  0
    5.2712    0.6897    0.1400 H   0  0  0  0  0  0  0  0  0  0  0  0
    3.7831    1.1450   -1.8292 H   0  0  0  0  0  0  0  0  0  0  0  0
    2.6785    2.0518   -0.7556 H   0  0  0  0  0  0  0  0  0  0  0  0
    3.6028   -2.2014    0.6646 H   0  0  0  0  0  0  0  0  0  0  0  0
    4.3419   -1.8052    2.2424 H   0  0  0  0  0  0  0  0  0  0  0  0
    2.4988   -3.0379    3.3949 H   0  0  0  0  0  0  0  0  0  0  0  0
    1.8026   -3.4700    1.8276 H   0  0  0  0  0  0  0  0  0  0  0  0
    3.3917   -4.0985    2.2920 H   0  0  0  0  0  0  0  0  0  0  0  0
   -0.4917   -1.8317   -2.1368 H   0  0  0  0  0  0  0  0  0  0  0  0
    1.2157   -1.3008   -2.3384 H   0  0  0  0  0  0  0  0  0  0  0  0
   -1.3151    2.6795   -0.0244 H   0  0  0  0  0  0  0  0  0  0  0  0
   -1.9323    3.5541   -1.4529 H   0  0  0  0  0  0  0  0  0  0  0  0
   -2.8546    4.5452    0.6264 H   0  0  0  0  0  0  0  0  0  0  0  0
   -4.1543    3.7854   -0.3116 H   0  0  0  0  0  0  0  0  0  0  0  0
   -3.5001    2.9726    1.1170 H   0  0  0  0  0  0  0  0  0  0  0  0
   -2.4858    0.3070    2.3907 H   0  0  0  0  0  0  0  0  0  0  0  0
   -3.6984   -0.0831    1.1328 H   0  0  0  0  0  0  0  0  0  0  0  0
   -2.7383   -2.3673    0.9144 H   0  0  0  0  0  0  0  0  0  0  0  0
   -1.5262   -1.9879    2.1444 H   0  0  0  0  0  0  0  0  0  0  0  0
   -3.2425   -2.0626    2.5852 H   0  0  0  0  0  0  0  0  0  0  0  0
  1  2  1  0  0  0  0
  2  3  1  0  0  0  0
  3  4  1  0  0  0  0
  4  5  2  0  0  0  0
  4  6  2  0  0  0  0
  6  7  1  0  0  0  0
  7  8  1  0  0  0  0
  4  9  1  0  0  0  0
  9 10  1  0  0  0  0
 10 11  1  0  0  0  0
 11 12  1  0  0  0  0
 12 13  2  0  0  0  0
 12 14  2  0  0  0  0
 14 15  1  0  0  0  0
 15 16  1  0  0  0  0
 12 17  1  0  0  0  0
 17 18  1  0  0  0  0
 18 19  1  0  0  0  0
  1 20  1  0  0  0  0
  1 21  1  0  0  0  0
  1 22  1  0  0  0  0
  2 23  1  0  0  0  0
  2 24  1  0  0  0  0
  7 25  1  0  0  0  0
  7 26  1  0  0  0  0
  8 27  1  0  0  0  0
  8 28  1  0  0  0  0
  8 29  1  0  0  0  0
 10 30  1  0  0  0  0
 10 31  1  0  0  0  0
 15 32  1  0  0  0  0
 15 33  1  0  0  0  0
 16 34  1  0  0  0  0
 16 35  1  0  0  0  0
 16 36  1  0  0  0  0
 18 37  1  0  0  0  0
 18 38  1  0  0  0  0
 19 39  1  0  0  0  0
 19 40  1  0  0  0  0
 19 41  1  0  0  0  0
M  END
