 xtb: 6.7.1 (edcfbbe)
          04092514003D

 41 40  0     0  0            999 V2000
    5.3193   -2.3692   -0.9541 C   0  0  0  0  0  0  0  0  0  0  0  0
    4.2584   -1.3441   -1.3022 C   0  0  0  0  0  0  0  0  0  0  0  0
    3.2824   -1.3377   -0.2405 O   0  0  0  0  0  0  0  0  0  0  0  0
    2.2411   -0.1530   -0.0623 P   0  0  0  0  0  0  0  0  0  0  0  0
    3.0081    1.6554   -0.0984 S   0  0  0  0  0  0  0  0  0  0  0  0
    1.4956   -0.5776    1.2666 O   0  0  0  0  0  0  0  0  0  0  0  0
    1.8615   -0.0514    2.5606 C   0  0  0  0  0  0  0  0  0  0  0  0
    3.1779   -0.6223    3.0433 C   0  0  0  0  0  0  0  0  0  0  0  0
    0.7672   -0.5782   -1.5187 S   0  0  0  0  0  0  0  0  0  0  0  0
   -0.0438    1.0465   -1.4913 C   0  0  0  0  0  0  0  0  0  0  0  0
   -0.8867    1.4046    0.0654 S   0  0  0  0  0  0  0  0  0  0  0  0
   -2.7553    0.4188   -0.3074 P   0  0  0  0  0  0  0  0  0  0  0  0
   -3.1114    0.0586   -2.1992 S   0  0  0  0  0  0  0  0  0  0  0  0
   -3.8839    1.3420    0.2839 O   0  0  0  0  0  0  0  0  0  0  0  0
   -4.2138    1.4867    1.6880 C   0  0  0  0  0  0  0  0  0  0  0  0
   -3.0855    2.1002    2.4892 C   0  0  0  0  0  0  0  0  0  0  0  0
   -2.7954   -0.8005    0.7178 O   0  0  0  0  0  0  0  0  0  0  0  0
   -1.8177   -1.8482    0.8089 C   0  0  0  0  0  0  0  0  0  0  0  0
   -1.9485   -2.8592   -0.3117 C   0  0  0  0  0  0  0  0  0  0  0  0
    5.8177   -2.0956   -0.0285 H   0  0  0  0  0  0  0  0  0  0  0  0
    4.8630   -3.3472   -0.8332 H   0  0  0  0  0  0  0  0  0  0  0  0
    6.0505   -2.4102   -1.7549 H   0  0  0  0  0  0  0  0  0  0  0  0
    3.7488   -1.6000   -2.2353 H   0  0  0  0  0  0  0  0  0  0  0  0
    4.6842   -0.3390   -1.3918 H   0  0  0  0  0  0  0  0  0  0  0  0
    1.9111    1.0398    2.4897 H   0  0  0  0  0  0  0  0  0  0  0  0
    1.0327   -0.3436    3.2065 H   0  0  0  0  0  0  0  0  0  0  0  0
    3.9859   -0.2892    2.3933 H   0  0  0  0  0  0  0  0  0  0  0  0
    3.3712   -0.2744    4.0534 H   0  0  0  0  0  0  0  0  0  0  0  0
    3.1436   -1.7084    3.0337 H   0  0  0  0  0  0  0  0  0  0  0  0
   -0.7716    1.0412   -2.3046 H   0  0  0  0  0  0  0  0  0  0  0  0
    0.7075    1.8236   -1.6275 H   0  0  0  0  0  0  0  0  0  0  0  0
   -5.0922    2.1334    1.6711 H   0  0  0  0  0  0  0  0  0  0  0  0
   -4.4836    0.5035    2.0774 H   0  0  0  0  0  0  0  0  0  0  0  0
   -3.4185    2.2529    3.5112 H   0  0  0  0  0  0  0  0  0  0  0  0
   -2.2199    1.4399    2.4937 H   0  0  0  0  0  0  0  0  0  0  0  0
   -2.7903    3.0550    2.0618 H   0  0  0  0  0  0  0  0  0  0  0  0
   -0.8171   -1.4047    0.8181 H   0  0  0  0  0  0  0  0  0  0  0  0
   -2.0192   -2.3063    1.7792 H   0  0  0  0  0  0  0  0  0  0  0  0
   -1.7323   -2.3957   -1.2725 H   0  0  0  0  0  0  0  0  0  0  0  0
   -1.2420   -3.6662   -0.1459 H   0  0  0  0  0  0  0  0  0  0  0  0
   -2.9579   -3.2613   -0.3392 H   0  0  0  0  0  0  0  0  0  0  0  0
  1  2  1  0  0  0  0
  2  3  1  0  0  0  0
  3  4  2  0  0  0  0
  4  5  2  0  0  0  0
  4  6  2  0  0  0  0
  6  7  1  0  0  0  0
  7  8  1  0  0  0  0
  4  9  1  0  0  0  0
  9 10  1  0  0  0  0
 10 11  1  0  0  0  0
 11 12  1  0  0  0  0
 12 13  2  0  0  0  0
 12 14  2  0  0  0  0
 14 15  1  0  0  0  0
 15 16  1  0  0  0  0
 12 17  2  0  0  0  0
 17 18  1  0  0  0  0
 18 19  1  0  0  0  0
  1 20  1  0  0  0  0
  1 21  1  0  0  0  0
  1 22  1  0  0  0  0
  2 23  1  0  0  0  0
  2 24  1  0  0  0  0
  7 25  1  0  0  0  0
  7 26  1  0  0  0  0
  8 27  1  0  0  0  0
  8 28  1  0  0  0  0
  8 29  1  0  0  0  0
 10 30  1  0  0  0  0
 10 31  1  0  0  0  0
 15 32  1  0  0  0  0
 15 33  1  0  0  0  0
 16 34  1  0  0  0  0
 16 35  1  0  0  0  0
 16 36  1  0  0  0  0
 18 37  1  0  0  0  0
 18 38  1  0  0  0  0
 19 39  1  0  0  0  0
 19 40  1  0  0  0  0
 19 41  1  0  0  0  0
M  END
