  28
 
 C         -5.5437623210        0.5604569508        0.0023567697
 C         -4.3382194358       -0.3721219811       -0.0003342468
 C         -3.0209967807        0.4005820303       -0.0060266907
 C         -1.8088277808       -0.5277322174       -0.0056489440
 C         -0.4926253184        0.2467680021       -0.0032568494
 C          0.7190969750       -0.6822377604       -0.0043663715
 C          2.0315456750        0.0967142768       -0.0102032131
 C          3.2441949947       -0.8296423511       -0.0101801465
 C          4.5442090384       -0.1022160202       -0.0016026101
 O          4.6872860034        1.0967448994       -0.0000854818
 H         -6.4693180164       -0.0099933947        0.0028700325
 H         -5.5309091081        1.1963520516        0.8847473133
 H         -5.5331697315        1.1985068886       -0.8785147826
 H         -4.3807071330       -1.0175035044       -0.8806092204
 H         -4.3746393319       -1.0144287191        0.8824417282
 H         -2.9799746308        1.0482114816        0.8730041171
 H         -2.9840519833        1.0423382857       -0.8895164042
 H         -1.8479873387       -1.1709809988       -0.8878509356
 H         -1.8500996537       -1.1728524115        0.8751018968
 H         -0.4528518041        0.8935549749       -0.8826988777
 H         -0.4540092941        0.8898636489        0.8789237117
 H          0.6806158671       -1.3224203327        0.8796318547
 H          0.6754329463       -1.3271957816       -0.8846585757
 H          2.0756517347        0.7410311949       -0.8907169424
 H          2.0803347295        0.7464900844        0.8660895790
 H          3.2306247569       -1.4880714712        0.8624502533
 H          3.2377431204       -1.4789099312       -0.8898069410
 H          5.4305701823       -0.7643883468        0.0028516419
          28
        -32.51190830
 C         -4.7144041548        0.8720332072        0.1953397990
 C         -3.6852357450       -0.1127705783       -0.3467441577
 C         -2.2974234207        0.1339537661        0.2407252293
 C         -1.2662923861       -0.8652400694       -0.2782532882
 C          0.1249280733       -0.6008607373        0.2935885310
 C          1.1522028664       -1.6100356551       -0.2104270811
 C          2.5610147848       -1.3509797887        0.3226455219
 C          3.1875299098       -0.0781795097       -0.2516176661
 C          2.6349975874        1.1807548004        0.3212350783
 O          2.4619538920        2.2134859997       -0.2857068360
 H         -4.4240599128        1.8936112288       -0.0400347199
 H         -5.6920590113        0.6828734075       -0.2409389425
 H         -4.7960602139        0.7806473456        1.2761500455
 H         -3.6358956391       -0.0243435654       -1.4343727401
 H         -3.9993837342       -1.1321605736       -0.1115416317
 H         -2.3506838044        0.0651387767        1.3299175432
 H         -1.9745366851        1.1477206301       -0.0095664987
 H         -1.2253768839       -0.8064298784       -1.3684129707
 H         -1.5797963616       -1.8776152669       -0.0129709778
 H          0.4355220706        0.4097838190        0.0140984387
 H          0.0784509259       -0.6424744223        1.3844506148
 H          0.8405413490       -2.6107901980        0.0955720405
 H          1.1700156939       -1.5897767931       -1.3021954229
 H          2.5325920605       -1.2831655084        1.4116811927
 H          3.1953736896       -2.1964491045        0.0543624730
 H          4.2507360732       -0.0639817056        0.0087629041
 H          3.1096535791       -0.0523320626       -1.3396735261
 H          2.4246594579        1.1366239624        1.4059374409
