41
 xtb: 6.7.1 (edcfbbe)
C            3.27765251576335        1.67843554798255        2.88630659050425
C            1.90847176634533        1.12122043356291        2.58613412234701
O            1.69162810357958        0.95355782148066        1.14153342699530
P            2.38782783637937       -0.22095113991864        0.29800183169220
S            2.69010412230340       -1.90689400180822        1.22505614222999
O            3.67496510756928        0.53966698448999       -0.29799048183922
C            4.89107202065293       -0.16341101571236       -0.73428293594967
C            4.72659463773980       -0.79046088148481       -2.09586909237289
S            1.13034685936233       -0.29575741054493       -1.41062173135347
C           -0.15367408268562       -1.46699362059096       -0.81843196682480
S           -1.33907663349954       -0.86434993250566        0.44601885950590
P           -2.66268204441332        0.29359597445802       -0.75217027265211
S           -3.10540991791450       -0.45416077383250       -2.49427673474589
O           -2.04949250635527        1.76736752397218       -0.89765411565485
C           -1.24136727078564        2.46522712556885        0.11962006122051
C           -2.01376716882228        2.80515351346274        1.36954976947512
O           -3.86781478815758        0.52148046212500        0.28875776059777
C           -5.08118975043800       -0.31015948631666        0.31471554852483
C           -4.85939323317741       -1.62232995769424        1.02377327295111
H            3.34681191870826        1.87716564768214        3.96084000603090
H            4.06759623299638        0.96921497988391        2.62088209068648
H            3.44506554741880        2.61674597119435        2.34994288011516
H            1.11428699313978        1.81147513498426        2.87996547816539
H            1.73992269624581        0.15554051031452        3.07247879337811
H            5.64789777400809        0.62343707580739       -0.74321324145793
H            5.15214261095401       -0.90147519286068        0.02984079656214
H            4.40912984151600       -0.04850279814610       -2.83432802001395
H            5.69414319848090       -1.19598543749205       -2.40957568613671
H            4.00346215120005       -1.61061646572459       -2.07866700553640
H            0.33705875093796       -2.33891234745420       -0.37547935553408
H           -0.70878042135507       -1.77840147874921       -1.70909710947134
H           -0.36646702918130        1.84796378731400        0.33562724319893
H           -0.91830084211957        3.36624591906156       -0.40577470092697
H           -1.38122958185224        3.44815297184883        1.99082400839556
H           -2.93171479671886        3.35139322283914        1.13444623868613
H           -2.26514174188868        1.91542496775636        1.95299027644670
H           -5.80288645579140        0.31498562184268        0.84421518801134
H           -5.41960803035852       -0.45174150403493       -0.71589197355389
H           -4.18425021588561       -2.27597590662534        0.46495471544850
H           -4.45452888354700       -1.46275678638995        2.02745002407628
H           -5.82471707279767       -2.13037105592929        1.11908302781625
