 xtb: 6.7.1 (edcfbbe)
          04032520003D

 10  9  0     0  0            999 V2000
   -0.6082    0.0058   -0.4695 C   0  0  0  0  0  0  0  0  0  0  0  0
    0.6082    0.0233    0.4683 C   0  0  0  0  0  0  0  0  0  0  0  0
    1.8270   -0.0777   -0.2297 O   0  0  0  0  0  0  0  0  0  0  0  0
   -1.8279   -0.0399    0.2328 O   0  0  0  0  0  0  0  0  0  0  0  0
   -0.5791   -0.8988   -1.0815 H   0  0  0  0  0  0  0  0  0  0  0  0
   -0.5803    0.8790   -1.1364 H   0  0  0  0  0  0  0  0  0  0  0  0
    0.5668   -0.8458    1.1292 H   0  0  0  0  0  0  0  0  0  0  0  0
    0.5924    0.9321    1.0862 H   0  0  0  0  0  0  0  0  0  0  0  0
    1.9289    0.6870   -0.8140 H   0  0  0  0  0  0  0  0  0  0  0  0
   -1.9183    0.7566    0.7750 H   0  0  0  0  0  0  0  0  0  0  0  0
  1  2  1  0  0  0  0
  2  3  1  0  0  0  0
  1  4  1  0  0  0  0
  1  5  1  0  0  0  0
  1  6  1  0  0  0  0
  2  7  1  0  0  0  0
  2  8  1  0  0  0  0
  3  9  1  0  0  0  0
  4 10  1  0  0  0  0
M  END
