 xtb: 6.7.1 (edcfbbe)
          04092513593D

 41 40  0     0  0            999 V2000
    4.0767   -0.0027   -2.7868 C   0  0  0  0  0  0  0  0  0  0  0  0
    4.3161   -0.6579   -1.4413 C   0  0  0  0  0  0  0  0  0  0  0  0
    3.8056    0.2008   -0.3865 O   0  0  0  0  0  0  0  0  0  0  0  0
    2.6282   -0.1974    0.5849 P   0  0  0  0  0  0  0  0  0  0  0  0
    2.3315    1.1906    1.9266 S   0  0  0  0  0  0  0  0  0  0  0  0
    3.1010   -1.6147    1.1348 O   0  0  0  0  0  0  0  0  0  0  0  0
    2.5968   -2.1747    2.3606 C   0  0  0  0  0  0  0  0  0  0  0  0
    1.1300   -2.5418    2.2620 C   0  0  0  0  0  0  0  0  0  0  0  0
    1.0062   -0.7212   -0.7064 S   0  0  0  0  0  0  0  0  0  0  0  0
    0.4845    0.9606   -1.1365 C   0  0  0  0  0  0  0  0  0  0  0  0
   -0.6926    1.6970    0.0399 S   0  0  0  0  0  0  0  0  0  0  0  0
   -2.2892    0.3642   -0.3270 P   0  0  0  0  0  0  0  0  0  0  0  0
   -2.5332   -0.2610   -2.1715 S   0  0  0  0  0  0  0  0  0  0  0  0
   -3.5531    1.0810    0.3185 O   0  0  0  0  0  0  0  0  0  0  0  0
   -4.4549    1.9165   -0.4284 C   0  0  0  0  0  0  0  0  0  0  0  0
   -3.8484    3.2632   -0.7677 C   0  0  0  0  0  0  0  0  0  0  0  0
   -1.9636   -0.7501    0.7518 O   0  0  0  0  0  0  0  0  0  0  0  0
   -2.4548   -2.1029    0.6391 C   0  0  0  0  0  0  0  0  0  0  0  0
   -3.9503   -2.1878    0.8631 C   0  0  0  0  0  0  0  0  0  0  0  0
    4.5396   -0.6035   -3.5631 H   0  0  0  0  0  0  0  0  0  0  0  0
    3.0109    0.0750   -2.9885 H   0  0  0  0  0  0  0  0  0  0  0  0
    4.5120    0.9929   -2.7979 H   0  0  0  0  0  0  0  0  0  0  0  0
    5.3822   -0.7652   -1.2355 H   0  0  0  0  0  0  0  0  0  0  0  0
    3.8304   -1.6337   -1.3778 H   0  0  0  0  0  0  0  0  0  0  0  0
    3.2221   -3.0542    2.5216 H   0  0  0  0  0  0  0  0  0  0  0  0
    2.7586   -1.4488    3.1635 H   0  0  0  0  0  0  0  0  0  0  0  0
    0.9590   -3.1895    1.4052 H   0  0  0  0  0  0  0  0  0  0  0  0
    0.8288   -3.0542    3.1704 H   0  0  0  0  0  0  0  0  0  0  0  0
    0.5277   -1.6401    2.1498 H   0  0  0  0  0  0  0  0  0  0  0  0
    0.0109    0.8941   -2.1156 H   0  0  0  0  0  0  0  0  0  0  0  0
    1.3491    1.6218   -1.1545 H   0  0  0  0  0  0  0  0  0  0  0  0
   -4.7446    1.3850   -1.3409 H   0  0  0  0  0  0  0  0  0  0  0  0
   -5.3187    2.0225    0.2298 H   0  0  0  0  0  0  0  0  0  0  0  0
   -4.6080    3.8909   -1.2235 H   0  0  0  0  0  0  0  0  0  0  0  0
   -3.4727    3.7470    0.1303 H   0  0  0  0  0  0  0  0  0  0  0  0
   -3.0245    3.1390   -1.4689 H   0  0  0  0  0  0  0  0  0  0  0  0
   -2.1881   -2.4835   -0.3521 H   0  0  0  0  0  0  0  0  0  0  0  0
   -1.9015   -2.6461    1.4062 H   0  0  0  0  0  0  0  0  0  0  0  0
   -4.2520   -3.2308    0.8635 H   0  0  0  0  0  0  0  0  0  0  0  0
   -4.2160   -1.7336    1.8140 H   0  0  0  0  0  0  0  0  0  0  0  0
   -4.4778   -1.6679    0.0643 H   0  0  0  0  0  0  0  0  0  0  0  0
  1  2  1  0  0  0  0
  2  3  1  0  0  0  0
  3  4  2  0  0  0  0
  4  5  2  0  0  0  0
  4  6  2  0  0  0  0
  6  7  1  0  0  0  0
  7  8  1  0  0  0  0
  4  9  1  0  0  0  0
  9 10  1  0  0  0  0
 10 11  1  0  0  0  0
 11 12  1  0  0  0  0
 12 13  2  0  0  0  0
 12 14  2  0  0  0  0
 14 15  1  0  0  0  0
 15 16  1  0  0  0  0
 12 17  2  0  0  0  0
 17 18  1  0  0  0  0
 18 19  1  0  0  0  0
  1 20  1  0  0  0  0
  1 21  1  0  0  0  0
  1 22  1  0  0  0  0
  2 23  1  0  0  0  0
  2 24  1  0  0  0  0
  7 25  1  0  0  0  0
  7 26  1  0  0  0  0
  8 27  1  0  0  0  0
  8 28  1  0  0  0  0
  8 29  1  0  0  0  0
 10 30  1  0  0  0  0
 10 31  1  0  0  0  0
 15 32  1  0  0  0  0
 15 33  1  0  0  0  0
 16 34  1  0  0  0  0
 16 35  1  0  0  0  0
 16 36  1  0  0  0  0
 18 37  1  0  0  0  0
 18 38  1  0  0  0  0
 19 39  1  0  0  0  0
 19 40  1  0  0  0  0
 19 41  1  0  0  0  0
M  END
