 xtb: 6.7.1 (edcfbbe)
          04092505203D

 41 40  0     0  0            999 V2000
    4.1469   -0.7280   -2.1912 C   0  0  0  0  0  0  0  0  0  0  0  0
    4.3730   -0.7922   -0.6942 C   0  0  0  0  0  0  0  0  0  0  0  0
    3.1381   -0.7298    0.0382 O   0  0  0  0  0  0  0  0  0  0  0  0
    2.2794    0.6156    0.1095 P   0  0  0  0  0  0  0  0  0  0  0  0
    3.3582    2.2494    0.1959 S   0  0  0  0  0  0  0  0  0  0  0  0
    1.3331    0.3528    1.3530 O   0  0  0  0  0  0  0  0  0  0  0  0
    1.8455    0.3071    2.7049 C   0  0  0  0  0  0  0  0  0  0  0  0
    2.1229   -1.1223    3.1239 C   0  0  0  0  0  0  0  0  0  0  0  0
    0.8332    0.4887   -1.4216 S   0  0  0  0  0  0  0  0  0  0  0  0
    0.2938   -1.2330   -1.1608 C   0  0  0  0  0  0  0  0  0  0  0  0
   -0.8131   -1.4622    0.2479 S   0  0  0  0  0  0  0  0  0  0  0  0
   -2.3372   -0.1295   -0.4065 P   0  0  0  0  0  0  0  0  0  0  0  0
   -2.6429   -0.0487   -2.3364 S   0  0  0  0  0  0  0  0  0  0  0  0
   -1.9571    1.3077    0.1284 O   0  0  0  0  0  0  0  0  0  0  0  0
   -1.7339    1.6096    1.5244 C   0  0  0  0  0  0  0  0  0  0  0  0
   -2.9577    2.2644    2.1308 C   0  0  0  0  0  0  0  0  0  0  0  0
   -3.5566   -0.5111    0.5396 O   0  0  0  0  0  0  0  0  0  0  0  0
   -4.0610   -1.8456    0.7447 C   0  0  0  0  0  0  0  0  0  0  0  0
   -4.4163   -2.5464   -0.5493 C   0  0  0  0  0  0  0  0  0  0  0  0
    3.4845   -1.5257   -2.5174 H   0  0  0  0  0  0  0  0  0  0  0  0
    3.7004    0.2305   -2.4564 H   0  0  0  0  0  0  0  0  0  0  0  0
    5.0993   -0.8231   -2.7029 H   0  0  0  0  0  0  0  0  0  0  0  0
    5.0090    0.0373   -0.3694 H   0  0  0  0  0  0  0  0  0  0  0  0
    4.8151   -1.7425   -0.3920 H   0  0  0  0  0  0  0  0  0  0  0  0
    2.7447    0.9292    2.7619 H   0  0  0  0  0  0  0  0  0  0  0  0
    1.0572    0.7536    3.3141 H   0  0  0  0  0  0  0  0  0  0  0  0
    1.2293   -1.7256    2.9871 H   0  0  0  0  0  0  0  0  0  0  0  0
    2.9251   -1.5448    2.5251 H   0  0  0  0  0  0  0  0  0  0  0  0
    2.4124   -1.1359    4.1699 H   0  0  0  0  0  0  0  0  0  0  0  0
    1.1566   -1.8707   -0.9869 H   0  0  0  0  0  0  0  0  0  0  0  0
   -0.2328   -1.5032   -2.0756 H   0  0  0  0  0  0  0  0  0  0  0  0
   -1.4738    0.6863    2.0506 H   0  0  0  0  0  0  0  0  0  0  0  0
   -0.8749    2.2854    1.5279 H   0  0  0  0  0  0  0  0  0  0  0  0
   -3.8022    1.5812    2.0995 H   0  0  0  0  0  0  0  0  0  0  0  0
   -2.7459    2.5315    3.1615 H   0  0  0  0  0  0  0  0  0  0  0  0
   -3.2126    3.1610    1.5724 H   0  0  0  0  0  0  0  0  0  0  0  0
   -3.3068   -2.4128    1.2971 H   0  0  0  0  0  0  0  0  0  0  0  0
   -4.9428   -1.6926    1.3693 H   0  0  0  0  0  0  0  0  0  0  0  0
   -4.8702   -3.5064   -0.3259 H   0  0  0  0  0  0  0  0  0  0  0  0
   -5.1120   -1.9441   -1.1288 H   0  0  0  0  0  0  0  0  0  0  0  0
   -3.5219   -2.7060   -1.1493 H   0  0  0  0  0  0  0  0  0  0  0  0
  1  2  1  0  0  0  0
  2  3  1  0  0  0  0
  3  4  2  0  0  0  0
  4  5  2  0  0  0  0
  4  6  2  0  0  0  0
  6  7  1  0  0  0  0
  7  8  1  0  0  0  0
  4  9  1  0  0  0  0
  9 10  1  0  0  0  0
 10 11  1  0  0  0  0
 11 12  1  0  0  0  0
 12 13  2  0  0  0  0
 12 14  2  0  0  0  0
 14 15  1  0  0  0  0
 15 16  1  0  0  0  0
 12 17  2  0  0  0  0
 17 18  1  0  0  0  0
 18 19  1  0  0  0  0
  1 20  1  0  0  0  0
  1 21  1  0  0  0  0
  1 22  1  0  0  0  0
  2 23  1  0  0  0  0
  2 24  1  0  0  0  0
  7 25  1  0  0  0  0
  7 26  1  0  0  0  0
  8 27  1  0  0  0  0
  8 28  1  0  0  0  0
  8 29  1  0  0  0  0
 10 30  1  0  0  0  0
 10 31  1  0  0  0  0
 15 32  1  0  0  0  0
 15 33  1  0  0  0  0
 16 34  1  0  0  0  0
 16 35  1  0  0  0  0
 16 36  1  0  0  0  0
 18 37  1  0  0  0  0
 18 38  1  0  0  0  0
 19 39  1  0  0  0  0
 19 40  1  0  0  0  0
 19 41  1  0  0  0  0
M  END
