 xtb: 6.7.1 (edcfbbe)
          04092513573D

 41 40  0     0  0            999 V2000
    6.1280    0.1481   -1.5044 C   0  0  0  0  0  0  0  0  0  0  0  0
    4.7336    0.6362   -1.1661 C   0  0  0  0  0  0  0  0  0  0  0  0
    4.0119   -0.4614   -0.5673 O   0  0  0  0  0  0  0  0  0  0  0  0
    2.6596   -0.2101    0.2076 P   0  0  0  0  0  0  0  0  0  0  0  0
    2.7067    1.1625    1.6119 S   0  0  0  0  0  0  0  0  0  0  0  0
    2.4825   -1.7031    0.6919 O   0  0  0  0  0  0  0  0  0  0  0  0
    1.4377   -2.1170    1.5937 C   0  0  0  0  0  0  0  0  0  0  0  0
    0.3599   -2.8768    0.8439 C   0  0  0  0  0  0  0  0  0  0  0  0
    1.2401    0.1492   -1.3495 S   0  0  0  0  0  0  0  0  0  0  0  0
    0.2183    1.4010   -0.5188 C   0  0  0  0  0  0  0  0  0  0  0  0
   -0.8578    0.7410    0.7820 S   0  0  0  0  0  0  0  0  0  0  0  0
   -2.5005    0.1790   -0.4705 P   0  0  0  0  0  0  0  0  0  0  0  0
   -2.0919   -1.0472   -1.9375 S   0  0  0  0  0  0  0  0  0  0  0  0
   -3.0923    1.5424   -0.9955 O   0  0  0  0  0  0  0  0  0  0  0  0
   -3.6369    2.5778   -0.1357 C   0  0  0  0  0  0  0  0  0  0  0  0
   -5.1464    2.4742   -0.0554 C   0  0  0  0  0  0  0  0  0  0  0  0
   -3.5976   -0.3230    0.5607 O   0  0  0  0  0  0  0  0  0  0  0  0
   -3.5602   -1.6372    1.1516 C   0  0  0  0  0  0  0  0  0  0  0  0
   -2.9228   -1.5972    2.5269 C   0  0  0  0  0  0  0  0  0  0  0  0
    6.6471   -0.1577   -0.6006 H   0  0  0  0  0  0  0  0  0  0  0  0
    6.0692   -0.7004   -2.1797 H   0  0  0  0  0  0  0  0  0  0  0  0
    6.6799    0.9513   -1.9818 H   0  0  0  0  0  0  0  0  0  0  0  0
    4.1953    0.9526   -2.0644 H   0  0  0  0  0  0  0  0  0  0  0  0
    4.7636    1.4675   -0.4530 H   0  0  0  0  0  0  0  0  0  0  0  0
    1.9328   -2.7619    2.3227 H   0  0  0  0  0  0  0  0  0  0  0  0
    1.0315   -1.2385    2.1081 H   0  0  0  0  0  0  0  0  0  0  0  0
    0.8028   -3.7081    0.3029 H   0  0  0  0  0  0  0  0  0  0  0  0
   -0.3682   -3.2575    1.5530 H   0  0  0  0  0  0  0  0  0  0  0  0
   -0.1448   -2.2341    0.1242 H   0  0  0  0  0  0  0  0  0  0  0  0
   -0.3866    1.8615   -1.2969 H   0  0  0  0  0  0  0  0  0  0  0  0
    0.8697    2.1259   -0.0311 H   0  0  0  0  0  0  0  0  0  0  0  0
   -3.1805    2.4946    0.8538 H   0  0  0  0  0  0  0  0  0  0  0  0
   -3.3318    3.5131   -0.6088 H   0  0  0  0  0  0  0  0  0  0  0  0
   -5.5256    3.3061    0.5305 H   0  0  0  0  0  0  0  0  0  0  0  0
   -5.5776    2.5135   -1.0520 H   0  0  0  0  0  0  0  0  0  0  0  0
   -5.4386    1.5403    0.4167 H   0  0  0  0  0  0  0  0  0  0  0  0
   -4.6063   -1.9431    1.2117 H   0  0  0  0  0  0  0  0  0  0  0  0
   -3.0245   -2.3126    0.4769 H   0  0  0  0  0  0  0  0  0  0  0  0
   -2.9597   -2.5903    2.9633 H   0  0  0  0  0  0  0  0  0  0  0  0
   -1.8867   -1.2728    2.4607 H   0  0  0  0  0  0  0  0  0  0  0  0
   -3.4624   -0.9064    3.1684 H   0  0  0  0  0  0  0  0  0  0  0  0
  1  2  1  0  0  0  0
  2  3  1  0  0  0  0
  3  4  2  0  0  0  0
  4  5  2  0  0  0  0
  4  6  2  0  0  0  0
  6  7  1  0  0  0  0
  7  8  1  0  0  0  0
  4  9  1  0  0  0  0
  9 10  1  0  0  0  0
 10 11  1  0  0  0  0
 11 12  1  0  0  0  0
 12 13  2  0  0  0  0
 12 14  2  0  0  0  0
 14 15  1  0  0  0  0
 15 16  1  0  0  0  0
 12 17  2  0  0  0  0
 17 18  1  0  0  0  0
 18 19  1  0  0  0  0
  1 20  1  0  0  0  0
  1 21  1  0  0  0  0
  1 22  1  0  0  0  0
  2 23  1  0  0  0  0
  2 24  1  0  0  0  0
  7 25  1  0  0  0  0
  7 26  1  0  0  0  0
  8 27  1  0  0  0  0
  8 28  1  0  0  0  0
  8 29  1  0  0  0  0
 10 30  1  0  0  0  0
 10 31  1  0  0  0  0
 15 32  1  0  0  0  0
 15 33  1  0  0  0  0
 16 34  1  0  0  0  0
 16 35  1  0  0  0  0
 16 36  1  0  0  0  0
 18 37  1  0  0  0  0
 18 38  1  0  0  0  0
 19 39  1  0  0  0  0
 19 40  1  0  0  0  0
 19 41  1  0  0  0  0
M  END
