 xtb: 6.7.1 (edcfbbe)
          04092505203D

 41 40  0     0  0            999 V2000
    2.8084   -0.4386   -2.7389 C   0  0  0  0  0  0  0  0  0  0  0  0
    1.6261    0.2519   -2.0948 C   0  0  0  0  0  0  0  0  0  0  0  0
    1.1386   -0.4731   -0.9479 O   0  0  0  0  0  0  0  0  0  0  0  0
    1.9994   -0.5617    0.3907 P   0  0  0  0  0  0  0  0  0  0  0  0
    3.1358    0.9856    0.8070 S   0  0  0  0  0  0  0  0  0  0  0  0
    2.7938   -1.9175    0.1536 O   0  0  0  0  0  0  0  0  0  0  0  0
    3.9561   -2.2762    0.9220 C   0  0  0  0  0  0  0  0  0  0  0  0
    3.6096   -2.6053    2.3597 C   0  0  0  0  0  0  0  0  0  0  0  0
    0.5181   -1.1480    1.7612 S   0  0  0  0  0  0  0  0  0  0  0  0
   -0.2406    0.4690    2.1390 C   0  0  0  0  0  0  0  0  0  0  0  0
   -0.3428    1.6111    0.7357 S   0  0  0  0  0  0  0  0  0  0  0  0
   -1.8790    0.6921   -0.4084 P   0  0  0  0  0  0  0  0  0  0  0  0
   -1.9149    1.2477   -2.2848 S   0  0  0  0  0  0  0  0  0  0  0  0
   -3.1916    0.9618    0.4590 O   0  0  0  0  0  0  0  0  0  0  0  0
   -3.7588    2.2785    0.5854 C   0  0  0  0  0  0  0  0  0  0  0  0
   -4.8273    2.5142   -0.4647 C   0  0  0  0  0  0  0  0  0  0  0  0
   -1.6887   -0.8457   -0.1172 O   0  0  0  0  0  0  0  0  0  0  0  0
   -1.9693   -1.8578   -1.1026 C   0  0  0  0  0  0  0  0  0  0  0  0
   -3.4613   -2.0658   -1.2481 C   0  0  0  0  0  0  0  0  0  0  0  0
    3.0657    0.0791   -3.6575 H   0  0  0  0  0  0  0  0  0  0  0  0
    3.6640   -0.4129   -2.0651 H   0  0  0  0  0  0  0  0  0  0  0  0
    2.5629   -1.4739   -2.9605 H   0  0  0  0  0  0  0  0  0  0  0  0
    0.7668    0.3031   -2.7670 H   0  0  0  0  0  0  0  0  0  0  0  0
    1.8917    1.2658   -1.7748 H   0  0  0  0  0  0  0  0  0  0  0  0
    4.3608   -3.1414    0.3953 H   0  0  0  0  0  0  0  0  0  0  0  0
    4.6679   -1.4454    0.8796 H   0  0  0  0  0  0  0  0  0  0  0  0
    2.8199   -3.3515    2.3970 H   0  0  0  0  0  0  0  0  0  0  0  0
    4.4923   -2.9865    2.8631 H   0  0  0  0  0  0  0  0  0  0  0  0
    3.2686   -1.7082    2.8745 H   0  0  0  0  0  0  0  0  0  0  0  0
    0.3689    0.9829    2.8799 H   0  0  0  0  0  0  0  0  0  0  0  0
   -1.2364    0.2561    2.5211 H   0  0  0  0  0  0  0  0  0  0  0  0
   -4.1817    2.3029    1.5916 H   0  0  0  0  0  0  0  0  0  0  0  0
   -2.9596    3.0237    0.5072 H   0  0  0  0  0  0  0  0  0  0  0  0
   -5.5966    1.7507   -0.3912 H   0  0  0  0  0  0  0  0  0  0  0  0
   -5.2736    3.4908   -0.3081 H   0  0  0  0  0  0  0  0  0  0  0  0
   -4.3920    2.4796   -1.4611 H   0  0  0  0  0  0  0  0  0  0  0  0
   -1.5225   -1.5570   -2.0554 H   0  0  0  0  0  0  0  0  0  0  0  0
   -1.4630   -2.7454   -0.7201 H   0  0  0  0  0  0  0  0  0  0  0  0
   -3.9197   -1.1549   -1.6315 H   0  0  0  0  0  0  0  0  0  0  0  0
   -3.6477   -2.8774   -1.9441 H   0  0  0  0  0  0  0  0  0  0  0  0
   -3.9023   -2.3037   -0.2840 H   0  0  0  0  0  0  0  0  0  0  0  0
  1  2  1  0  0  0  0
  2  3  1  0  0  0  0
  3  4  1  0  0  0  0
  4  5  2  0  0  0  0
  4  6  2  0  0  0  0
  6  7  1  0  0  0  0
  7  8  1  0  0  0  0
  4  9  1  0  0  0  0
  9 10  1  0  0  0  0
 10 11  1  0  0  0  0
 11 12  1  0  0  0  0
 12 13  2  0  0  0  0
 12 14  1  0  0  0  0
 14 15  1  0  0  0  0
 15 16  1  0  0  0  0
 12 17  2  0  0  0  0
 17 18  1  0  0  0  0
 18 19  1  0  0  0  0
  1 20  1  0  0  0  0
  1 21  1  0  0  0  0
  1 22  1  0  0  0  0
  2 23  1  0  0  0  0
  2 24  1  0  0  0  0
  7 25  1  0  0  0  0
  7 26  1  0  0  0  0
  8 27  1  0  0  0  0
  8 28  1  0  0  0  0
  8 29  1  0  0  0  0
 10 30  1  0  0  0  0
 10 31  1  0  0  0  0
 15 32  1  0  0  0  0
 15 33  1  0  0  0  0
 16 34  1  0  0  0  0
 16 35  1  0  0  0  0
 16 36  1  0  0  0  0
 18 37  1  0  0  0  0
 18 38  1  0  0  0  0
 19 39  1  0  0  0  0
 19 40  1  0  0  0  0
 19 41  1  0  0  0  0
M  END
