 xtb: 6.7.1 (edcfbbe)
          04092514003D

 41 40  0     0  0            999 V2000
    5.5062   -0.2914   -1.0066 C   0  0  0  0  0  0  0  0  0  0  0  0
    4.1311    0.2296   -1.3708 C   0  0  0  0  0  0  0  0  0  0  0  0
    3.4102    0.6570   -0.1837 O   0  0  0  0  0  0  0  0  0  0  0  0
    2.3382   -0.2241    0.5591 P   0  0  0  0  0  0  0  0  0  0  0  0
    1.7704    0.5724    2.2525 S   0  0  0  0  0  0  0  0  0  0  0  0
    3.0340   -1.6466    0.6680 O   0  0  0  0  0  0  0  0  0  0  0  0
    2.3845   -2.7460    1.3405 C   0  0  0  0  0  0  0  0  0  0  0  0
    3.4381   -3.7853    1.6673 C   0  0  0  0  0  0  0  0  0  0  0  0
    0.7968   -0.6126   -0.8769 S   0  0  0  0  0  0  0  0  0  0  0  0
    0.2086    1.0848   -1.1296 C   0  0  0  0  0  0  0  0  0  0  0  0
   -0.9148    1.7131    0.1549 S   0  0  0  0  0  0  0  0  0  0  0  0
   -2.6589    0.5719   -0.3090 P   0  0  0  0  0  0  0  0  0  0  0  0
   -2.6595   -0.3218   -2.0575 S   0  0  0  0  0  0  0  0  0  0  0  0
   -3.8801    1.5454   -0.0607 O   0  0  0  0  0  0  0  0  0  0  0  0
   -4.5178    2.2793   -1.1205 C   0  0  0  0  0  0  0  0  0  0  0  0
   -3.6609    3.4288   -1.6128 C   0  0  0  0  0  0  0  0  0  0  0  0
   -2.9153   -0.3057    0.9862 O   0  0  0  0  0  0  0  0  0  0  0  0
   -1.9536   -1.1747    1.6028 C   0  0  0  0  0  0  0  0  0  0  0  0
   -1.8914   -2.5263    0.9176 C   0  0  0  0  0  0  0  0  0  0  0  0
    6.0592    0.4639   -0.4549 H   0  0  0  0  0  0  0  0  0  0  0  0
    5.4238   -1.1842   -0.3929 H   0  0  0  0  0  0  0  0  0  0  0  0
    6.0442   -0.5317   -1.9188 H   0  0  0  0  0  0  0  0  0  0  0  0
    3.5434   -0.5323   -1.8887 H   0  0  0  0  0  0  0  0  0  0  0  0
    4.2016    1.1286   -1.9859 H   0  0  0  0  0  0  0  0  0  0  0  0
    1.9031   -2.3642    2.2469 H   0  0  0  0  0  0  0  0  0  0  0  0
    1.6218   -3.1486    0.6685 H   0  0  0  0  0  0  0  0  0  0  0  0
    4.1876   -3.3638    2.3311 H   0  0  0  0  0  0  0  0  0  0  0  0
    2.9632   -4.6297    2.1562 H   0  0  0  0  0  0  0  0  0  0  0  0
    3.9224   -4.1255    0.7566 H   0  0  0  0  0  0  0  0  0  0  0  0
   -0.3130    1.0677   -2.0859 H   0  0  0  0  0  0  0  0  0  0  0  0
    1.0540    1.7685   -1.1434 H   0  0  0  0  0  0  0  0  0  0  0  0
   -4.7454    1.5887   -1.9392 H   0  0  0  0  0  0  0  0  0  0  0  0
   -5.4453    2.6360   -0.6699 H   0  0  0  0  0  0  0  0  0  0  0  0
   -2.7717    3.0440   -2.1101 H   0  0  0  0  0  0  0  0  0  0  0  0
   -4.2310    4.0233   -2.3198 H   0  0  0  0  0  0  0  0  0  0  0  0
   -3.3550    4.0554   -0.7788 H   0  0  0  0  0  0  0  0  0  0  0  0
   -0.9721   -0.6860    1.6097 H   0  0  0  0  0  0  0  0  0  0  0  0
   -2.3039   -1.2686    2.6325 H   0  0  0  0  0  0  0  0  0  0  0  0
   -1.2084   -3.1698    1.4636 H   0  0  0  0  0  0  0  0  0  0  0  0
   -2.8788   -2.9798    0.9027 H   0  0  0  0  0  0  0  0  0  0  0  0
   -1.5405   -2.4199   -0.1074 H   0  0  0  0  0  0  0  0  0  0  0  0
  1  2  1  0  0  0  0
  2  3  1  0  0  0  0
  3  4  2  0  0  0  0
  4  5  2  0  0  0  0
  4  6  2  0  0  0  0
  6  7  1  0  0  0  0
  7  8  1  0  0  0  0
  4  9  1  0  0  0  0
  9 10  1  0  0  0  0
 10 11  1  0  0  0  0
 11 12  1  0  0  0  0
 12 13  2  0  0  0  0
 12 14  2  0  0  0  0
 14 15  1  0  0  0  0
 15 16  1  0  0  0  0
 12 17  2  0  0  0  0
 17 18  1  0  0  0  0
 18 19  1  0  0  0  0
  1 20  1  0  0  0  0
  1 21  1  0  0  0  0
  1 22  1  0  0  0  0
  2 23  1  0  0  0  0
  2 24  1  0  0  0  0
  7 25  1  0  0  0  0
  7 26  1  0  0  0  0
  8 27  1  0  0  0  0
  8 28  1  0  0  0  0
  8 29  1  0  0  0  0
 10 30  1  0  0  0  0
 10 31  1  0  0  0  0
 15 32  1  0  0  0  0
 15 33  1  0  0  0  0
 16 34  1  0  0  0  0
 16 35  1  0  0  0  0
 16 36  1  0  0  0  0
 18 37  1  0  0  0  0
 18 38  1  0  0  0  0
 19 39  1  0  0  0  0
 19 40  1  0  0  0  0
 19 41  1  0  0  0  0
M  END
