 xtb: 6.7.1 (edcfbbe)
          04092513583D

 41 40  0     0  0            999 V2000
    5.0860   -2.3981   -1.8337 C   0  0  0  0  0  0  0  0  0  0  0  0
    4.1374   -1.2157   -1.8084 C   0  0  0  0  0  0  0  0  0  0  0  0
    3.1466   -1.4598   -0.7884 O   0  0  0  0  0  0  0  0  0  0  0  0
    2.2181   -0.3067   -0.2025 P   0  0  0  0  0  0  0  0  0  0  0  0
    3.1865    1.3284    0.2923 S   0  0  0  0  0  0  0  0  0  0  0  0
    1.4749   -1.0889    0.9523 O   0  0  0  0  0  0  0  0  0  0  0  0
    1.9719   -1.1391    2.3097 C   0  0  0  0  0  0  0  0  0  0  0  0
    1.1446   -0.2342    3.2009 C   0  0  0  0  0  0  0  0  0  0  0  0
    0.6855   -0.1319   -1.6377 S   0  0  0  0  0  0  0  0  0  0  0  0
    0.1111    1.5357   -1.2081 C   0  0  0  0  0  0  0  0  0  0  0  0
   -0.6032    1.6650    0.4556 S   0  0  0  0  0  0  0  0  0  0  0  0
   -2.2608    0.4020    0.1574 P   0  0  0  0  0  0  0  0  0  0  0  0
   -3.1354    0.4178   -1.6004 S   0  0  0  0  0  0  0  0  0  0  0  0
   -3.2379    0.7161    1.3755 O   0  0  0  0  0  0  0  0  0  0  0  0
   -4.3514    1.6236    1.2945 C   0  0  0  0  0  0  0  0  0  0  0  0
   -3.9133    3.0739    1.2933 C   0  0  0  0  0  0  0  0  0  0  0  0
   -1.6291   -0.9721    0.6320 O   0  0  0  0  0  0  0  0  0  0  0  0
   -2.2731   -2.2412    0.3780 C   0  0  0  0  0  0  0  0  0  0  0  0
   -1.5056   -3.0080   -0.6805 C   0  0  0  0  0  0  0  0  0  0  0  0
    5.6031   -2.4877   -0.8826 H   0  0  0  0  0  0  0  0  0  0  0  0
    4.5320   -3.3134   -2.0211 H   0  0  0  0  0  0  0  0  0  0  0  0
    5.8146   -2.2515   -2.6245 H   0  0  0  0  0  0  0  0  0  0  0  0
    3.6207   -1.1009   -2.7650 H   0  0  0  0  0  0  0  0  0  0  0  0
    4.6617   -0.2844   -1.5695 H   0  0  0  0  0  0  0  0  0  0  0  0
    1.8808   -2.1857    2.6049 H   0  0  0  0  0  0  0  0  0  0  0  0
    3.0250   -0.8438    2.3220 H   0  0  0  0  0  0  0  0  0  0  0  0
    1.4546   -0.3655    4.2328 H   0  0  0  0  0  0  0  0  0  0  0  0
    1.2849    0.8062    2.9143 H   0  0  0  0  0  0  0  0  0  0  0  0
    0.0901   -0.4807    3.1042 H   0  0  0  0  0  0  0  0  0  0  0  0
   -0.6395    1.7934   -1.9546 H   0  0  0  0  0  0  0  0  0  0  0  0
    0.9502    2.2303   -1.2297 H   0  0  0  0  0  0  0  0  0  0  0  0
   -4.9221    1.3924    0.3892 H   0  0  0  0  0  0  0  0  0  0  0  0
   -4.9454    1.3861    2.1785 H   0  0  0  0  0  0  0  0  0  0  0  0
   -3.2663    3.2756    2.1429 H   0  0  0  0  0  0  0  0  0  0  0  0
   -3.3714    3.3022    0.3769 H   0  0  0  0  0  0  0  0  0  0  0  0
   -4.7916    3.7095    1.3514 H   0  0  0  0  0  0  0  0  0  0  0  0
   -2.2673   -2.7646    1.3356 H   0  0  0  0  0  0  0  0  0  0  0  0
   -3.3063   -2.0671    0.0625 H   0  0  0  0  0  0  0  0  0  0  0  0
   -0.4631   -3.1026   -0.3867 H   0  0  0  0  0  0  0  0  0  0  0  0
   -1.9414   -3.9952   -0.7962 H   0  0  0  0  0  0  0  0  0  0  0  0
   -1.5510   -2.4822   -1.6321 H   0  0  0  0  0  0  0  0  0  0  0  0
  1  2  1  0  0  0  0
  2  3  1  0  0  0  0
  3  4  2  0  0  0  0
  4  5  2  0  0  0  0
  4  6  2  0  0  0  0
  6  7  1  0  0  0  0
  7  8  1  0  0  0  0
  4  9  1  0  0  0  0
  9 10  1  0  0  0  0
 10 11  1  0  0  0  0
 11 12  1  0  0  0  0
 12 13  2  0  0  0  0
 12 14  2  0  0  0  0
 14 15  1  0  0  0  0
 15 16  1  0  0  0  0
 12 17  2  0  0  0  0
 17 18  1  0  0  0  0
 18 19  1  0  0  0  0
  1 20  1  0  0  0  0
  1 21  1  0  0  0  0
  1 22  1  0  0  0  0
  2 23  1  0  0  0  0
  2 24  1  0  0  0  0
  7 25  1  0  0  0  0
  7 26  1  0  0  0  0
  8 27  1  0  0  0  0
  8 28  1  0  0  0  0
  8 29  1  0  0  0  0
 10 30  1  0  0  0  0
 10 31  1  0  0  0  0
 15 32  1  0  0  0  0
 15 33  1  0  0  0  0
 16 34  1  0  0  0  0
 16 35  1  0  0  0  0
 16 36  1  0  0  0  0
 18 37  1  0  0  0  0
 18 38  1  0  0  0  0
 19 39  1  0  0  0  0
 19 40  1  0  0  0  0
 19 41  1  0  0  0  0
M  END
