 xtb: 6.7.1 (edcfbbe)
          04092505213D

 41 40  0     0  0            999 V2000
    3.2755   -2.9407   -0.0177 C   0  0  0  0  0  0  0  0  0  0  0  0
    3.8075   -2.0870   -1.1474 C   0  0  0  0  0  0  0  0  0  0  0  0
    3.9040   -0.6836   -0.7956 O   0  0  0  0  0  0  0  0  0  0  0  0
    2.7605    0.2175   -0.2080 P   0  0  0  0  0  0  0  0  0  0  0  0
    3.1353    2.1256   -0.4427 S   0  0  0  0  0  0  0  0  0  0  0  0
    2.7149   -0.2498    1.3123 O   0  0  0  0  0  0  0  0  0  0  0  0
    1.9570    0.4304    2.3291 C   0  0  0  0  0  0  0  0  0  0  0  0
    0.7510   -0.3974    2.7291 C   0  0  0  0  0  0  0  0  0  0  0  0
    0.9710   -0.4821   -1.1591 S   0  0  0  0  0  0  0  0  0  0  0  0
    0.1595    1.1095   -1.4093 C   0  0  0  0  0  0  0  0  0  0  0  0
   -0.8100    1.6522    0.0204 S   0  0  0  0  0  0  0  0  0  0  0  0
   -2.4174    0.3132   -0.3186 P   0  0  0  0  0  0  0  0  0  0  0  0
   -2.9959    0.0703   -2.1697 S   0  0  0  0  0  0  0  0  0  0  0  0
   -3.5886    0.8814    0.5793 O   0  0  0  0  0  0  0  0  0  0  0  0
   -3.4402    1.4091    1.9197 C   0  0  0  0  0  0  0  0  0  0  0  0
   -3.3517    0.3064    2.9545 C   0  0  0  0  0  0  0  0  0  0  0  0
   -1.8385   -1.0047    0.3791 O   0  0  0  0  0  0  0  0  0  0  0  0
   -2.1604   -2.3285   -0.0820 C   0  0  0  0  0  0  0  0  0  0  0  0
   -3.5578   -2.7272    0.3459 C   0  0  0  0  0  0  0  0  0  0  0  0
    2.2415   -2.6755    0.1943 H   0  0  0  0  0  0  0  0  0  0  0  0
    3.3191   -3.9847   -0.3122 H   0  0  0  0  0  0  0  0  0  0  0  0
    3.8711   -2.7922    0.8790 H   0  0  0  0  0  0  0  0  0  0  0  0
    3.1716   -2.1701   -2.0325 H   0  0  0  0  0  0  0  0  0  0  0  0
    4.8354   -2.3478   -1.4035 H   0  0  0  0  0  0  0  0  0  0  0  0
    2.6468    0.5508    3.1669 H   0  0  0  0  0  0  0  0  0  0  0  0
    1.6625    1.4201    1.9636 H   0  0  0  0  0  0  0  0  0  0  0  0
    0.0759   -0.5208    1.8857 H   0  0  0  0  0  0  0  0  0  0  0  0
    1.0705   -1.3779    3.0705 H   0  0  0  0  0  0  0  0  0  0  0  0
    0.2267    0.1106    3.5322 H   0  0  0  0  0  0  0  0  0  0  0  0
   -0.5033    1.0014   -2.2686 H   0  0  0  0  0  0  0  0  0  0  0  0
    0.9186    1.8751   -1.5805 H   0  0  0  0  0  0  0  0  0  0  0  0
   -2.5548    2.0502    1.9459 H   0  0  0  0  0  0  0  0  0  0  0  0
   -4.3368    2.0164    2.0562 H   0  0  0  0  0  0  0  0  0  0  0  0
   -3.3178    0.7539    3.9430 H   0  0  0  0  0  0  0  0  0  0  0  0
   -4.2230   -0.3397    2.8861 H   0  0  0  0  0  0  0  0  0  0  0  0
   -2.4544   -0.2869    2.8012 H   0  0  0  0  0  0  0  0  0  0  0  0
   -2.0659   -2.3529   -1.1720 H   0  0  0  0  0  0  0  0  0  0  0  0
   -1.3973   -2.9645    0.3681 H   0  0  0  0  0  0  0  0  0  0  0  0
   -4.2818   -2.0376   -0.0883 H   0  0  0  0  0  0  0  0  0  0  0  0
   -3.7714   -3.7312   -0.0068 H   0  0  0  0  0  0  0  0  0  0  0  0
   -3.6466   -2.6982    1.4283 H   0  0  0  0  0  0  0  0  0  0  0  0
  1  2  1  0  0  0  0
  2  3  1  0  0  0  0
  3  4  2  0  0  0  0
  4  5  2  0  0  0  0
  4  6  2  0  0  0  0
  6  7  1  0  0  0  0
  7  8  1  0  0  0  0
  4  9  1  0  0  0  0
  9 10  1  0  0  0  0
 10 11  1  0  0  0  0
 11 12  1  0  0  0  0
 12 13  2  0  0  0  0
 12 14  2  0  0  0  0
 14 15  1  0  0  0  0
 15 16  1  0  0  0  0
 12 17  1  0  0  0  0
 17 18  1  0  0  0  0
 18 19  1  0  0  0  0
  1 20  1  0  0  0  0
  1 21  1  0  0  0  0
  1 22  1  0  0  0  0
  2 23  1  0  0  0  0
  2 24  1  0  0  0  0
  7 25  1  0  0  0  0
  7 26  1  0  0  0  0
  8 27  1  0  0  0  0
  8 28  1  0  0  0  0
  8 29  1  0  0  0  0
 10 30  1  0  0  0  0
 10 31  1  0  0  0  0
 15 32  1  0  0  0  0
 15 33  1  0  0  0  0
 16 34  1  0  0  0  0
 16 35  1  0  0  0  0
 16 36  1  0  0  0  0
 18 37  1  0  0  0  0
 18 38  1  0  0  0  0
 19 39  1  0  0  0  0
 19 40  1  0  0  0  0
 19 41  1  0  0  0  0
M  END
