 xtb: 6.7.1 (edcfbbe)
          04092505213D

 41 40  0     0  0            999 V2000
    4.4962    2.2322   -0.9104 C   0  0  0  0  0  0  0  0  0  0  0  0
    4.7732    0.7519   -1.0726 C   0  0  0  0  0  0  0  0  0  0  0  0
    3.5621   -0.0291   -1.1733 O   0  0  0  0  0  0  0  0  0  0  0  0
    2.4453   -0.1064   -0.0534 P   0  0  0  0  0  0  0  0  0  0  0  0
    1.1408    1.3609    0.0359 S   0  0  0  0  0  0  0  0  0  0  0  0
    3.3223   -0.2786    1.2617 O   0  0  0  0  0  0  0  0  0  0  0  0
    2.7713   -0.1171    2.5801 C   0  0  0  0  0  0  0  0  0  0  0  0
    1.9285   -1.3081    2.9888 C   0  0  0  0  0  0  0  0  0  0  0  0
    1.7003   -2.0339   -0.5296 S   0  0  0  0  0  0  0  0  0  0  0  0
   -0.0036   -1.6427   -0.9838 C   0  0  0  0  0  0  0  0  0  0  0  0
   -1.0526   -1.2835    0.4634 S   0  0  0  0  0  0  0  0  0  0  0  0
   -2.4270    0.0469   -0.4846 P   0  0  0  0  0  0  0  0  0  0  0  0
   -1.8300    0.9027   -2.1398 S   0  0  0  0  0  0  0  0  0  0  0  0
   -2.9427    0.9406    0.7213 O   0  0  0  0  0  0  0  0  0  0  0  0
   -2.1389    1.8410    1.5046 C   0  0  0  0  0  0  0  0  0  0  0  0
   -1.9457    3.1704    0.8044 C   0  0  0  0  0  0  0  0  0  0  0  0
   -3.6967   -0.8320   -0.8009 O   0  0  0  0  0  0  0  0  0  0  0  0
   -4.4104   -1.5994    0.2002 C   0  0  0  0  0  0  0  0  0  0  0  0
   -5.6276   -0.8420    0.6901 C   0  0  0  0  0  0  0  0  0  0  0  0
    3.9881    2.4188    0.0349 H   0  0  0  0  0  0  0  0  0  0  0  0
    5.4339    2.7788   -0.9236 H   0  0  0  0  0  0  0  0  0  0  0  0
    3.8606    2.5891   -1.7180 H   0  0  0  0  0  0  0  0  0  0  0  0
    5.3577    0.3685   -0.2336 H   0  0  0  0  0  0  0  0  0  0  0  0
    5.2872    0.5415   -2.0120 H   0  0  0  0  0  0  0  0  0  0  0  0
    3.6478   -0.0070    3.2203 H   0  0  0  0  0  0  0  0  0  0  0  0
    2.1788    0.8038    2.5966 H   0  0  0  0  0  0  0  0  0  0  0  0
    1.6362   -1.2005    4.0282 H   0  0  0  0  0  0  0  0  0  0  0  0
    1.0298   -1.3666    2.3755 H   0  0  0  0  0  0  0  0  0  0  0  0
    2.4937   -2.2282    2.8657 H   0  0  0  0  0  0  0  0  0  0  0  0
   -0.3856   -2.5286   -1.4852 H   0  0  0  0  0  0  0  0  0  0  0  0
   -0.0330   -0.7716   -1.6442 H   0  0  0  0  0  0  0  0  0  0  0  0
   -2.7033    1.9573    2.4317 H   0  0  0  0  0  0  0  0  0  0  0  0
   -1.1734    1.3739    1.7140 H   0  0  0  0  0  0  0  0  0  0  0  0
   -2.9063    3.5906    0.5188 H   0  0  0  0  0  0  0  0  0  0  0  0
   -1.4322    3.8549    1.4715 H   0  0  0  0  0  0  0  0  0  0  0  0
   -1.3395    3.0377   -0.0901 H   0  0  0  0  0  0  0  0  0  0  0  0
   -4.6958   -2.5188   -0.3142 H   0  0  0  0  0  0  0  0  0  0  0  0
   -3.7272   -1.8315    1.0223 H   0  0  0  0  0  0  0  0  0  0  0  0
   -6.2712   -0.5918   -0.1488 H   0  0  0  0  0  0  0  0  0  0  0  0
   -6.1754   -1.4652    1.3900 H   0  0  0  0  0  0  0  0  0  0  0  0
   -5.3264    0.0771    1.1849 H   0  0  0  0  0  0  0  0  0  0  0  0
  1  2  1  0  0  0  0
  2  3  1  0  0  0  0
  3  4  2  0  0  0  0
  4  5  2  0  0  0  0
  4  6  2  0  0  0  0
  6  7  1  0  0  0  0
  7  8  1  0  0  0  0
  4  9  1  0  0  0  0
  9 10  1  0  0  0  0
 10 11  1  0  0  0  0
 11 12  1  0  0  0  0
 12 13  2  0  0  0  0
 12 14  2  0  0  0  0
 14 15  1  0  0  0  0
 15 16  1  0  0  0  0
 12 17  2  0  0  0  0
 17 18  1  0  0  0  0
 18 19  1  0  0  0  0
  1 20  1  0  0  0  0
  1 21  1  0  0  0  0
  1 22  1  0  0  0  0
  2 23  1  0  0  0  0
  2 24  1  0  0  0  0
  7 25  1  0  0  0  0
  7 26  1  0  0  0  0
  8 27  1  0  0  0  0
  8 28  1  0  0  0  0
  8 29  1  0  0  0  0
 10 30  1  0  0  0  0
 10 31  1  0  0  0  0
 15 32  1  0  0  0  0
 15 33  1  0  0  0  0
 16 34  1  0  0  0  0
 16 35  1  0  0  0  0
 16 36  1  0  0  0  0
 18 37  1  0  0  0  0
 18 38  1  0  0  0  0
 19 39  1  0  0  0  0
 19 40  1  0  0  0  0
 19 41  1  0  0  0  0
M  END
