 xtb: 6.7.1 (edcfbbe)
          04092507313D

 38 37  0     0  0            999 V2000
    2.8446   -3.2921    0.0101 C   0  0  0  0  0  0  0  0  0  0  0  0
    3.3003   -1.8421   -0.0100 C   0  0  0  0  0  0  0  0  0  0  0  0
    2.3060   -1.0033   -0.6297 O   0  0  0  0  0  0  0  0  0  0  0  0
    2.2963   -0.9170   -1.9493 C   0  0  0  0  0  0  0  0  0  0  0  0
    3.1134   -1.4430   -2.6711 O   0  0  0  0  0  0  0  0  0  0  0  0
    1.1487   -0.0768   -2.4705 C   0  0  0  0  0  0  0  0  0  0  0  0
    0.2413    0.4528   -1.3709 C   0  0  0  0  0  0  0  0  0  0  0  0
   -0.5290    1.1051   -1.8021 H   0  0  0  0  0  0  0  0  0  0  0  0
    1.0219    1.2930   -0.3756 C   0  0  0  0  0  0  0  0  0  0  0  0
    1.9367    2.0128   -0.7029 O   0  0  0  0  0  0  0  0  0  0  0  0
    0.5467    1.1820    0.8469 O   0  0  0  0  0  0  0  0  0  0  0  0
    1.1560    1.9562    1.8989 C   0  0  0  0  0  0  0  0  0  0  0  0
    2.3268    1.2056    2.5098 C   0  0  0  0  0  0  0  0  0  0  0  0
   -0.6385   -0.9077   -0.5318 S   0  0  0  0  0  0  0  0  0  0  0  0
   -2.0624    0.2639    0.5288 P   0  0  0  0  0  0  0  0  0  0  0  0
   -2.4276    2.0563   -0.1731 S   0  0  0  0  0  0  0  0  0  0  0  0
   -3.3396   -0.7059    0.5371 O   0  0  0  0  0  0  0  0  0  0  0  0
   -4.0698   -0.9818   -0.6623 C   0  0  0  0  0  0  0  0  0  0  0  0
   -1.7128    0.2574    2.0687 O   0  0  0  0  0  0  0  0  0  0  0  0
   -1.4265   -0.9618    2.7818 C   0  0  0  0  0  0  0  0  0  0  0  0
    3.5628   -3.8856    0.5658 H   0  0  0  0  0  0  0  0  0  0  0  0
    1.8679   -3.3705    0.4800 H   0  0  0  0  0  0  0  0  0  0  0  0
    2.7781   -3.6751   -1.0053 H   0  0  0  0  0  0  0  0  0  0  0  0
    4.2386   -1.7350   -0.5616 H   0  0  0  0  0  0  0  0  0  0  0  0
    3.4065   -1.4429    0.9990 H   0  0  0  0  0  0  0  0  0  0  0  0
    0.5843   -0.6827   -3.1808 H   0  0  0  0  0  0  0  0  0  0  0  0
    1.5830    0.7658   -3.0142 H   0  0  0  0  0  0  0  0  0  0  0  0
    1.4775    2.9127    1.4774 H   0  0  0  0  0  0  0  0  0  0  0  0
    0.3514    2.1120    2.6188 H   0  0  0  0  0  0  0  0  0  0  0  0
    2.7227    1.7804    3.3404 H   0  0  0  0  0  0  0  0  0  0  0  0
    2.0030    0.2323    2.8682 H   0  0  0  0  0  0  0  0  0  0  0  0
    3.1096    1.0737    1.7660 H   0  0  0  0  0  0  0  0  0  0  0  0
   -3.4798   -1.6238   -1.3162 H   0  0  0  0  0  0  0  0  0  0  0  0
   -4.3150   -0.0505   -1.1754 H   0  0  0  0  0  0  0  0  0  0  0  0
   -4.9770   -1.4887   -0.3436 H   0  0  0  0  0  0  0  0  0  0  0  0
   -0.6087   -1.4920    2.2939 H   0  0  0  0  0  0  0  0  0  0  0  0
   -2.3133   -1.5917    2.8123 H   0  0  0  0  0  0  0  0  0  0  0  0
   -1.1417   -0.6469    3.7824 H   0  0  0  0  0  0  0  0  0  0  0  0
  1  2  1  0  0  0  0
  2  3  1  0  0  0  0
  3  4  1  0  0  0  0
  4  5  2  0  0  0  0
  4  6  1  0  0  0  0
  6  7  1  0  0  0  0
  7  8  1  0  0  0  0
  7  9  1  0  0  0  0
  9 10  2  0  0  0  0
  9 11  1  0  0  0  0
 11 12  1  0  0  0  0
 12 13  1  0  0  0  0
  7 14  1  0  0  0  0
 14 15  1  0  0  0  0
 15 16  2  0  0  0  0
 15 17  1  0  0  0  0
 17 18  1  0  0  0  0
 15 19  2  0  0  0  0
 19 20  1  0  0  0  0
  1 21  1  0  0  0  0
  1 22  1  0  0  0  0
  1 23  1  0  0  0  0
  2 24  1  0  0  0  0
  2 25  1  0  0  0  0
  6 26  1  0  0  0  0
  6 27  1  0  0  0  0
 12 28  1  0  0  0  0
 12 29  1  0  0  0  0
 13 30  1  0  0  0  0
 13 31  1  0  0  0  0
 13 32  1  0  0  0  0
 18 33  1  0  0  0  0
 18 34  1  0  0  0  0
 18 35  1  0  0  0  0
 20 36  1  0  0  0  0
 20 37  1  0  0  0  0
 20 38  1  0  0  0  0
M  END
