 xtb: 6.7.1 (edcfbbe)
          04092505213D

 41 40  0     0  0            999 V2000
    0.9523   -1.6828    2.9019 C   0  0  0  0  0  0  0  0  0  0  0  0
    2.2952   -2.0382    2.2966 C   0  0  0  0  0  0  0  0  0  0  0  0
    2.8671   -0.9277    1.5857 O   0  0  0  0  0  0  0  0  0  0  0  0
    2.2910   -0.4403    0.1868 P   0  0  0  0  0  0  0  0  0  0  0  0
    1.7593   -1.8997   -1.0186 S   0  0  0  0  0  0  0  0  0  0  0  0
    3.4411    0.5012   -0.3653 O   0  0  0  0  0  0  0  0  0  0  0  0
    4.5121    0.0013   -1.1919 C   0  0  0  0  0  0  0  0  0  0  0  0
    5.4594   -0.8837   -0.4097 C   0  0  0  0  0  0  0  0  0  0  0  0
    0.9127    1.0633    0.7317 S   0  0  0  0  0  0  0  0  0  0  0  0
    0.4846    1.6543   -0.9224 C   0  0  0  0  0  0  0  0  0  0  0  0
   -0.7393    0.6305   -1.8140 S   0  0  0  0  0  0  0  0  0  0  0  0
   -2.3372    0.5968   -0.4368 P   0  0  0  0  0  0  0  0  0  0  0  0
   -4.1200    0.2988   -1.1961 S   0  0  0  0  0  0  0  0  0  0  0  0
   -2.0590    1.9757    0.2901 O   0  0  0  0  0  0  0  0  0  0  0  0
   -2.8659    2.4229    1.4056 C   0  0  0  0  0  0  0  0  0  0  0  0
   -3.9796    3.3345    0.9304 C   0  0  0  0  0  0  0  0  0  0  0  0
   -1.9653   -0.4565    0.7106 O   0  0  0  0  0  0  0  0  0  0  0  0
   -2.4974   -1.7903    0.7085 C   0  0  0  0  0  0  0  0  0  0  0  0
   -1.8995   -2.6350   -0.3977 C   0  0  0  0  0  0  0  0  0  0  0  0
    1.0463   -0.8092    3.5418 H   0  0  0  0  0  0  0  0  0  0  0  0
    0.2366   -1.4570    2.1120 H   0  0  0  0  0  0  0  0  0  0  0  0
    0.5856   -2.5218    3.4847 H   0  0  0  0  0  0  0  0  0  0  0  0
    2.1964   -2.8805    1.6032 H   0  0  0  0  0  0  0  0  0  0  0  0
    3.0340   -2.2732    3.0639 H   0  0  0  0  0  0  0  0  0  0  0  0
    4.0760   -0.5482   -2.0327 H   0  0  0  0  0  0  0  0  0  0  0  0
    5.0070    0.9038   -1.5534 H   0  0  0  0  0  0  0  0  0  0  0  0
    6.3080   -1.1438   -1.0348 H   0  0  0  0  0  0  0  0  0  0  0  0
    5.8084   -0.3656    0.4795 H   0  0  0  0  0  0  0  0  0  0  0  0
    4.9490   -1.7972   -0.1080 H   0  0  0  0  0  0  0  0  0  0  0  0
    1.3692    1.6581   -1.5554 H   0  0  0  0  0  0  0  0  0  0  0  0
    0.0843    2.6566   -0.8017 H   0  0  0  0  0  0  0  0  0  0  0  0
   -3.2642    1.5529    1.9331 H   0  0  0  0  0  0  0  0  0  0  0  0
   -2.1619    2.9505    2.0517 H   0  0  0  0  0  0  0  0  0  0  0  0
   -3.5667    4.1765    0.3819 H   0  0  0  0  0  0  0  0  0  0  0  0
   -4.6582    2.7912    0.2762 H   0  0  0  0  0  0  0  0  0  0  0  0
   -4.5326    3.7013    1.7893 H   0  0  0  0  0  0  0  0  0  0  0  0
   -2.2510   -2.1796    1.6973 H   0  0  0  0  0  0  0  0  0  0  0  0
   -3.5844   -1.7289    0.5902 H   0  0  0  0  0  0  0  0  0  0  0  0
   -0.8140   -2.6548   -0.3324 H   0  0  0  0  0  0  0  0  0  0  0  0
   -2.2793   -3.6488   -0.3273 H   0  0  0  0  0  0  0  0  0  0  0  0
   -2.1758   -2.2204   -1.3678 H   0  0  0  0  0  0  0  0  0  0  0  0
  1  2  1  0  0  0  0
  2  3  1  0  0  0  0
  3  4  2  0  0  0  0
  4  5  2  0  0  0  0
  4  6  2  0  0  0  0
  6  7  1  0  0  0  0
  7  8  1  0  0  0  0
  4  9  1  0  0  0  0
  9 10  1  0  0  0  0
 10 11  1  0  0  0  0
 11 12  1  0  0  0  0
 12 13  2  0  0  0  0
 12 14  2  0  0  0  0
 14 15  1  0  0  0  0
 15 16  1  0  0  0  0
 12 17  1  0  0  0  0
 17 18  1  0  0  0  0
 18 19  1  0  0  0  0
  1 20  1  0  0  0  0
  1 21  1  0  0  0  0
  1 22  1  0  0  0  0
  2 23  1  0  0  0  0
  2 24  1  0  0  0  0
  7 25  1  0  0  0  0
  7 26  1  0  0  0  0
  8 27  1  0  0  0  0
  8 28  1  0  0  0  0
  8 29  1  0  0  0  0
 10 30  1  0  0  0  0
 10 31  1  0  0  0  0
 15 32  1  0  0  0  0
 15 33  1  0  0  0  0
 16 34  1  0  0  0  0
 16 35  1  0  0  0  0
 16 36  1  0  0  0  0
 18 37  1  0  0  0  0
 18 38  1  0  0  0  0
 19 39  1  0  0  0  0
 19 40  1  0  0  0  0
 19 41  1  0  0  0  0
M  END
