 xtb: 6.7.1 (edcfbbe)
          04092507313D

 38 37  0     0  0            999 V2000
    5.2256   -2.3169   -1.4710 C   0  0  0  0  0  0  0  0  0  0  0  0
    4.5765   -1.0737   -0.8834 C   0  0  0  0  0  0  0  0  0  0  0  0
    3.1568   -1.0621   -1.1233 O   0  0  0  0  0  0  0  0  0  0  0  0
    2.3805   -1.7334   -0.2874 C   0  0  0  0  0  0  0  0  0  0  0  0
    2.7829   -2.3942    0.6417 O   0  0  0  0  0  0  0  0  0  0  0  0
    0.9163   -1.6274   -0.6762 C   0  0  0  0  0  0  0  0  0  0  0  0
    0.5465   -0.1845   -0.9993 C   0  0  0  0  0  0  0  0  0  0  0  0
    1.1276    0.1570   -1.8633 H   0  0  0  0  0  0  0  0  0  0  0  0
    0.8923    0.7395    0.1536 C   0  0  0  0  0  0  0  0  0  0  0  0
    1.8429    0.5401    0.8742 O   0  0  0  0  0  0  0  0  0  0  0  0
    0.0939    1.7866    0.2218 O   0  0  0  0  0  0  0  0  0  0  0  0
    0.3663    2.7842    1.2266 C   0  0  0  0  0  0  0  0  0  0  0  0
    1.3476    3.8179    0.7018 C   0  0  0  0  0  0  0  0  0  0  0  0
   -1.1867   -0.0141   -1.5258 S   0  0  0  0  0  0  0  0  0  0  0  0
   -2.1871    0.1474    0.3423 P   0  0  0  0  0  0  0  0  0  0  0  0
   -1.2962   -0.5668    1.9391 S   0  0  0  0  0  0  0  0  0  0  0  0
   -2.6603    1.6421    0.5267 O   0  0  0  0  0  0  0  0  0  0  0  0
   -3.3952    2.3440   -0.4986 C   0  0  0  0  0  0  0  0  0  0  0  0
   -3.5876   -0.5517    0.0068 O   0  0  0  0  0  0  0  0  0  0  0  0
   -3.6868   -1.9648   -0.2011 C   0  0  0  0  0  0  0  0  0  0  0  0
    4.8523   -3.2049   -0.9664 H   0  0  0  0  0  0  0  0  0  0  0  0
    5.0032   -2.3893   -2.5320 H   0  0  0  0  0  0  0  0  0  0  0  0
    6.3000   -2.2584   -1.3321 H   0  0  0  0  0  0  0  0  0  0  0  0
    4.9394   -0.1672   -1.3683 H   0  0  0  0  0  0  0  0  0  0  0  0
    4.7426   -1.0184    0.1963 H   0  0  0  0  0  0  0  0  0  0  0  0
    0.3252   -2.0078    0.1594 H   0  0  0  0  0  0  0  0  0  0  0  0
    0.7463   -2.2517   -1.5547 H   0  0  0  0  0  0  0  0  0  0  0  0
   -0.6082    3.2212    1.4464 H   0  0  0  0  0  0  0  0  0  0  0  0
    0.7572    2.2779    2.1142 H   0  0  0  0  0  0  0  0  0  0  0  0
    0.9696    4.2619   -0.2148 H   0  0  0  0  0  0  0  0  0  0  0  0
    1.4785    4.5929    1.4496 H   0  0  0  0  0  0  0  0  0  0  0  0
    2.3104    3.3520    0.5044 H   0  0  0  0  0  0  0  0  0  0  0  0
   -3.5229    3.3532   -0.1160 H   0  0  0  0  0  0  0  0  0  0  0  0
   -4.3593    1.8651   -0.6561 H   0  0  0  0  0  0  0  0  0  0  0  0
   -2.8228    2.3500   -1.4259 H   0  0  0  0  0  0  0  0  0  0  0  0
   -4.7503   -2.1890   -0.1854 H   0  0  0  0  0  0  0  0  0  0  0  0
   -3.1744   -2.5000    0.5999 H   0  0  0  0  0  0  0  0  0  0  0  0
   -3.2525   -2.2283   -1.1652 H   0  0  0  0  0  0  0  0  0  0  0  0
  1  2  1  0  0  0  0
  2  3  1  0  0  0  0
  3  4  1  0  0  0  0
  4  5  2  0  0  0  0
  4  6  1  0  0  0  0
  6  7  1  0  0  0  0
  7  8  1  0  0  0  0
  7  9  1  0  0  0  0
  9 10  2  0  0  0  0
  9 11  1  0  0  0  0
 11 12  1  0  0  0  0
 12 13  1  0  0  0  0
  7 14  1  0  0  0  0
 14 15  1  0  0  0  0
 15 16  2  0  0  0  0
 15 17  2  0  0  0  0
 17 18  1  0  0  0  0
 15 19  1  0  0  0  0
 19 20  1  0  0  0  0
  1 21  1  0  0  0  0
  1 22  1  0  0  0  0
  1 23  1  0  0  0  0
  2 24  1  0  0  0  0
  2 25  1  0  0  0  0
  6 26  1  0  0  0  0
  6 27  1  0  0  0  0
 12 28  1  0  0  0  0
 12 29  1  0  0  0  0
 13 30  1  0  0  0  0
 13 31  1  0  0  0  0
 13 32  1  0  0  0  0
 18 33  1  0  0  0  0
 18 34  1  0  0  0  0
 18 35  1  0  0  0  0
 20 36  1  0  0  0  0
 20 37  1  0  0  0  0
 20 38  1  0  0  0  0
M  END
