 xtb: 6.7.1 (edcfbbe)
          04092505203D

 41 40  0     0  0            999 V2000
    4.2262   -1.6175   -1.9959 C   0  0  0  0  0  0  0  0  0  0  0  0
    4.3231   -1.4008   -0.4988 C   0  0  0  0  0  0  0  0  0  0  0  0
    3.9010   -0.0838   -0.1031 O   0  0  0  0  0  0  0  0  0  0  0  0
    2.4380    0.4900   -0.2924 P   0  0  0  0  0  0  0  0  0  0  0  0
    1.9575    1.1745   -2.0714 S   0  0  0  0  0  0  0  0  0  0  0  0
    2.5894    1.5868    0.8363 O   0  0  0  0  0  0  0  0  0  0  0  0
    1.7247    2.7233    0.9926 C   0  0  0  0  0  0  0  0  0  0  0  0
    0.8528    2.5539    2.2213 C   0  0  0  0  0  0  0  0  0  0  0  0
    1.1812   -1.0359    0.4930 S   0  0  0  0  0  0  0  0  0  0  0  0
    0.1652   -1.4134   -0.9834 C   0  0  0  0  0  0  0  0  0  0  0  0
   -1.5232   -1.8490   -0.5356 S   0  0  0  0  0  0  0  0  0  0  0  0
   -2.0933    0.0149    0.3230 P   0  0  0  0  0  0  0  0  0  0  0  0
   -1.3971    1.6288   -0.5439 S   0  0  0  0  0  0  0  0  0  0  0  0
   -1.6669   -0.0432    1.8405 O   0  0  0  0  0  0  0  0  0  0  0  0
   -1.6852   -1.2072    2.7036 C   0  0  0  0  0  0  0  0  0  0  0  0
   -3.0400   -1.8777    2.7599 C   0  0  0  0  0  0  0  0  0  0  0  0
   -3.6784   -0.0607    0.4024 O   0  0  0  0  0  0  0  0  0  0  0  0
   -4.5325    0.3674   -0.6708 C   0  0  0  0  0  0  0  0  0  0  0  0
   -4.4026   -0.5124   -1.8977 C   0  0  0  0  0  0  0  0  0  0  0  0
    4.6207   -2.5974   -2.2451 H   0  0  0  0  0  0  0  0  0  0  0  0
    3.1888   -1.5545   -2.3218 H   0  0  0  0  0  0  0  0  0  0  0  0
    4.7933   -0.8550   -2.5241 H   0  0  0  0  0  0  0  0  0  0  0  0
    5.3581   -1.4502   -0.1564 H   0  0  0  0  0  0  0  0  0  0  0  0
    3.7212   -2.1369    0.0431 H   0  0  0  0  0  0  0  0  0  0  0  0
    2.3938    3.5796    1.1002 H   0  0  0  0  0  0  0  0  0  0  0  0
    1.1179    2.8540    0.0894 H   0  0  0  0  0  0  0  0  0  0  0  0
    0.1491    1.7358    2.0805 H   0  0  0  0  0  0  0  0  0  0  0  0
    1.4724    2.3438    3.0883 H   0  0  0  0  0  0  0  0  0  0  0  0
    0.2917    3.4682    2.3856 H   0  0  0  0  0  0  0  0  0  0  0  0
    0.5751   -2.2842   -1.4890 H   0  0  0  0  0  0  0  0  0  0  0  0
    0.1720   -0.5328   -1.6332 H   0  0  0  0  0  0  0  0  0  0  0  0
   -0.9144   -1.8996    2.3522 H   0  0  0  0  0  0  0  0  0  0  0  0
   -1.3960   -0.7993    3.6732 H   0  0  0  0  0  0  0  0  0  0  0  0
   -3.0089   -2.6721    3.4992 H   0  0  0  0  0  0  0  0  0  0  0  0
   -3.8051   -1.1572    3.0365 H   0  0  0  0  0  0  0  0  0  0  0  0
   -3.2915   -2.3047    1.7912 H   0  0  0  0  0  0  0  0  0  0  0  0
   -5.5341    0.3142   -0.2416 H   0  0  0  0  0  0  0  0  0  0  0  0
   -4.2882    1.4061   -0.9154 H   0  0  0  0  0  0  0  0  0  0  0  0
   -3.4211   -0.3794   -2.3505 H   0  0  0  0  0  0  0  0  0  0  0  0
   -4.5278   -1.5584   -1.6299 H   0  0  0  0  0  0  0  0  0  0  0  0
   -5.1613   -0.2315   -2.6212 H   0  0  0  0  0  0  0  0  0  0  0  0
  1  2  1  0  0  0  0
  2  3  1  0  0  0  0
  3  4  2  0  0  0  0
  4  5  2  0  0  0  0
  4  6  2  0  0  0  0
  6  7  1  0  0  0  0
  7  8  1  0  0  0  0
  4  9  1  0  0  0  0
  9 10  1  0  0  0  0
 10 11  1  0  0  0  0
 11 12  1  0  0  0  0
 12 13  2  0  0  0  0
 12 14  2  0  0  0  0
 14 15  1  0  0  0  0
 15 16  1  0  0  0  0
 12 17  2  0  0  0  0
 17 18  1  0  0  0  0
 18 19  1  0  0  0  0
  1 20  1  0  0  0  0
  1 21  1  0  0  0  0
  1 22  1  0  0  0  0
  2 23  1  0  0  0  0
  2 24  1  0  0  0  0
  7 25  1  0  0  0  0
  7 26  1  0  0  0  0
  8 27  1  0  0  0  0
  8 28  1  0  0  0  0
  8 29  1  0  0  0  0
 10 30  1  0  0  0  0
 10 31  1  0  0  0  0
 15 32  1  0  0  0  0
 15 33  1  0  0  0  0
 16 34  1  0  0  0  0
 16 35  1  0  0  0  0
 16 36  1  0  0  0  0
 18 37  1  0  0  0  0
 18 38  1  0  0  0  0
 19 39  1  0  0  0  0
 19 40  1  0  0  0  0
 19 41  1  0  0  0  0
M  END
