 xtb: 6.7.1 (edcfbbe)
          04092513583D

 41 40  0     0  0            999 V2000
    2.9921   -2.6310    1.4474 C   0  0  0  0  0  0  0  0  0  0  0  0
    1.7212   -2.1994    0.7436 C   0  0  0  0  0  0  0  0  0  0  0  0
    1.5881   -0.7685    0.7575 O   0  0  0  0  0  0  0  0  0  0  0  0
    2.3112    0.1909   -0.2968 P   0  0  0  0  0  0  0  0  0  0  0  0
    3.0429   -0.6652   -1.8914 S   0  0  0  0  0  0  0  0  0  0  0  0
    3.4338    0.9529    0.5183 O   0  0  0  0  0  0  0  0  0  0  0  0
    3.2534    1.4884    1.8540 C   0  0  0  0  0  0  0  0  0  0  0  0
    2.9709    2.9765    1.8125 C   0  0  0  0  0  0  0  0  0  0  0  0
    0.7870    1.6338   -0.6062 S   0  0  0  0  0  0  0  0  0  0  0  0
   -0.0373    0.7898   -1.9775 C   0  0  0  0  0  0  0  0  0  0  0  0
   -0.7255   -0.8289   -1.5311 S   0  0  0  0  0  0  0  0  0  0  0  0
   -2.1809   -0.1369   -0.1699 P   0  0  0  0  0  0  0  0  0  0  0  0
   -3.0384    1.5819   -0.5779 S   0  0  0  0  0  0  0  0  0  0  0  0
   -1.4087   -0.2409    1.2020 O   0  0  0  0  0  0  0  0  0  0  0  0
   -1.8155    0.4679    2.3971 C   0  0  0  0  0  0  0  0  0  0  0  0
   -0.5782    1.0232    3.0722 C   0  0  0  0  0  0  0  0  0  0  0  0
   -3.1873   -1.3626   -0.0492 O   0  0  0  0  0  0  0  0  0  0  0  0
   -4.2118   -1.6189   -1.0314 C   0  0  0  0  0  0  0  0  0  0  0  0
   -5.2684   -2.4952   -0.3886 C   0  0  0  0  0  0  0  0  0  0  0  0
    3.0123   -2.2486    2.4646 H   0  0  0  0  0  0  0  0  0  0  0  0
    3.0392   -3.7151    1.4703 H   0  0  0  0  0  0  0  0  0  0  0  0
    3.8582   -2.2497    0.9076 H   0  0  0  0  0  0  0  0  0  0  0  0
    0.8258   -2.5586    1.2541 H   0  0  0  0  0  0  0  0  0  0  0  0
    1.7151   -2.5460   -0.2949 H   0  0  0  0  0  0  0  0  0  0  0  0
    2.4457    0.9441    2.3473 H   0  0  0  0  0  0  0  0  0  0  0  0
    4.2007    1.2822    2.3550 H   0  0  0  0  0  0  0  0  0  0  0  0
    3.7691    3.4942    1.2881 H   0  0  0  0  0  0  0  0  0  0  0  0
    2.0322    3.1762    1.2991 H   0  0  0  0  0  0  0  0  0  0  0  0
    2.9083    3.3513    2.8295 H   0  0  0  0  0  0  0  0  0  0  0  0
    0.6800    0.6032   -2.7764 H   0  0  0  0  0  0  0  0  0  0  0  0
   -0.8397    1.4498   -2.3065 H   0  0  0  0  0  0  0  0  0  0  0  0
   -2.5080    1.2686    2.1163 H   0  0  0  0  0  0  0  0  0  0  0  0
   -2.3325   -0.2533    3.0335 H   0  0  0  0  0  0  0  0  0  0  0  0
   -0.8643    1.5091    3.9993 H   0  0  0  0  0  0  0  0  0  0  0  0
    0.1171    0.2163    3.2867 H   0  0  0  0  0  0  0  0  0  0  0  0
   -0.0938    1.7475    2.4219 H   0  0  0  0  0  0  0  0  0  0  0  0
   -4.6298   -0.6607   -1.3582 H   0  0  0  0  0  0  0  0  0  0  0  0
   -3.7459   -2.1172   -1.8856 H   0  0  0  0  0  0  0  0  0  0  0  0
   -4.8178   -3.4163   -0.0305 H   0  0  0  0  0  0  0  0  0  0  0  0
   -5.7268   -1.9774    0.4492 H   0  0  0  0  0  0  0  0  0  0  0  0
   -6.0305   -2.7303   -1.1244 H   0  0  0  0  0  0  0  0  0  0  0  0
  1  2  1  0  0  0  0
  2  3  1  0  0  0  0
  3  4  1  0  0  0  0
  4  5  2  0  0  0  0
  4  6  2  0  0  0  0
  6  7  1  0  0  0  0
  7  8  1  0  0  0  0
  4  9  1  0  0  0  0
  9 10  1  0  0  0  0
 10 11  1  0  0  0  0
 11 12  1  0  0  0  0
 12 13  2  0  0  0  0
 12 14  2  0  0  0  0
 14 15  1  0  0  0  0
 15 16  1  0  0  0  0
 12 17  2  0  0  0  0
 17 18  1  0  0  0  0
 18 19  1  0  0  0  0
  1 20  1  0  0  0  0
  1 21  1  0  0  0  0
  1 22  1  0  0  0  0
  2 23  1  0  0  0  0
  2 24  1  0  0  0  0
  7 25  1  0  0  0  0
  7 26  1  0  0  0  0
  8 27  1  0  0  0  0
  8 28  1  0  0  0  0
  8 29  1  0  0  0  0
 10 30  1  0  0  0  0
 10 31  1  0  0  0  0
 15 32  1  0  0  0  0
 15 33  1  0  0  0  0
 16 34  1  0  0  0  0
 16 35  1  0  0  0  0
 16 36  1  0  0  0  0
 18 37  1  0  0  0  0
 18 38  1  0  0  0  0
 19 39  1  0  0  0  0
 19 40  1  0  0  0  0
 19 41  1  0  0  0  0
M  END
