 xtb: 6.7.1 (edcfbbe)
          04032520063D

 19 19  0     0  0            999 V2000
    2.3958   -0.0000   -0.0458 C   0  0  0  0  0  0  0  0  0  0  0  0
    0.9877    0.0000    0.2910 N   0  0  0  0  0  0  0  0  0  0  0  0
    0.3173    1.1868   -0.2135 C   0  0  0  0  0  0  0  0  0  0  0  0
   -1.1394    1.1884    0.2405 C   0  0  0  0  0  0  0  0  0  0  0  0
   -1.7945    0.0001   -0.2787 N   0  0  0  0  0  0  0  0  0  0  0  0
   -1.1395   -1.1884    0.2403 C   0  0  0  0  0  0  0  0  0  0  0  0
    0.3173   -1.1868   -0.2134 C   0  0  0  0  0  0  0  0  0  0  0  0
    2.8619   -0.8851    0.3833 H   0  0  0  0  0  0  0  0  0  0  0  0
    2.8619    0.8856    0.3822 H   0  0  0  0  0  0  0  0  0  0  0  0
    2.5709   -0.0007   -1.1335 H   0  0  0  0  0  0  0  0  0  0  0  0
    0.8268    2.0680    0.1819 H   0  0  0  0  0  0  0  0  0  0  0  0
    0.3485    1.2246   -1.3172 H   0  0  0  0  0  0  0  0  0  0  0  0
   -1.1603    1.2250    1.3433 H   0  0  0  0  0  0  0  0  0  0  0  0
   -1.6469    2.0707   -0.1534 H   0  0  0  0  0  0  0  0  0  0  0  0
   -2.7729    0.0001   -0.0093 H   0  0  0  0  0  0  0  0  0  0  0  0
   -1.1607   -1.2254    1.3432 H   0  0  0  0  0  0  0  0  0  0  0  0
   -1.6470   -2.0706   -0.1540 H   0  0  0  0  0  0  0  0  0  0  0  0
    0.8266   -2.0678    0.1823 H   0  0  0  0  0  0  0  0  0  0  0  0
    0.3488   -1.2249   -1.3170 H   0  0  0  0  0  0  0  0  0  0  0  0
  1  2  1  0  0  0  0
  2  3  1  0  0  0  0
  3  4  1  0  0  0  0
  4  5  1  0  0  0  0
  5  6  1  0  0  0  0
  2  7  1  0  0  0  0
  6  7  1  0  0  0  0
  1  8  1  0  0  0  0
  1  9  1  0  0  0  0
  1 10  1  0  0  0  0
  3 11  1  0  0  0  0
  3 12  1  0  0  0  0
  4 13  1  0  0  0  0
  4 14  1  0  0  0  0
  5 15  1  0  0  0  0
  6 16  1  0  0  0  0
  6 17  1  0  0  0  0
  7 18  1  0  0  0  0
  7 19  1  0  0  0  0
M  END
