 xtb: 6.7.1 (edcfbbe)
          04092505213D

 41 40  0     0  0            999 V2000
    0.9664    1.8345    2.9541 C   0  0  0  0  0  0  0  0  0  0  0  0
    2.0718    1.5567    1.9566 C   0  0  0  0  0  0  0  0  0  0  0  0
    2.1827    0.1172    1.8043 O   0  0  0  0  0  0  0  0  0  0  0  0
    2.7217   -0.5687    0.4934 P   0  0  0  0  0  0  0  0  0  0  0  0
    2.8074   -2.5137    0.6719 S   0  0  0  0  0  0  0  0  0  0  0  0
    4.1051    0.1834    0.2721 O   0  0  0  0  0  0  0  0  0  0  0  0
    5.1471   -0.3248   -0.5817 C   0  0  0  0  0  0  0  0  0  0  0  0
    4.7312   -0.3675   -2.0376 C   0  0  0  0  0  0  0  0  0  0  0  0
    1.4817    0.1653   -1.0797 S   0  0  0  0  0  0  0  0  0  0  0  0
    0.1365   -1.0110   -0.8173 C   0  0  0  0  0  0  0  0  0  0  0  0
   -0.8714   -0.6299    0.6436 S   0  0  0  0  0  0  0  0  0  0  0  0
   -2.6454    0.0677   -0.2914 P   0  0  0  0  0  0  0  0  0  0  0  0
   -2.7348   -0.1773   -2.2407 S   0  0  0  0  0  0  0  0  0  0  0  0
   -2.9128    1.5608    0.1925 O   0  0  0  0  0  0  0  0  0  0  0  0
   -2.4953    2.7067   -0.5686 C   0  0  0  0  0  0  0  0  0  0  0  0
   -1.0067    2.9538   -0.4400 C   0  0  0  0  0  0  0  0  0  0  0  0
   -3.6522   -0.7422    0.6220 O   0  0  0  0  0  0  0  0  0  0  0  0
   -5.0201   -0.3499    0.8715 C   0  0  0  0  0  0  0  0  0  0  0  0
   -5.8473   -0.3078   -0.3968 C   0  0  0  0  0  0  0  0  0  0  0  0
    0.0238    1.4315    2.5912 H   0  0  0  0  0  0  0  0  0  0  0  0
    1.1967    1.3619    3.9045 H   0  0  0  0  0  0  0  0  0  0  0  0
    0.8759    2.9066    3.0978 H   0  0  0  0  0  0  0  0  0  0  0  0
    3.0369    1.9228    2.3110 H   0  0  0  0  0  0  0  0  0  0  0  0
    1.8551    1.9973    0.9788 H   0  0  0  0  0  0  0  0  0  0  0  0
    5.9737    0.3681   -0.4185 H   0  0  0  0  0  0  0  0  0  0  0  0
    5.4227   -1.3239   -0.2306 H   0  0  0  0  0  0  0  0  0  0  0  0
    3.9570   -1.1194   -2.1828 H   0  0  0  0  0  0  0  0  0  0  0  0
    4.3448    0.5993   -2.3505 H   0  0  0  0  0  0  0  0  0  0  0  0
    5.5904   -0.6280   -2.6472 H   0  0  0  0  0  0  0  0  0  0  0  0
    0.5683   -2.0016   -0.6704 H   0  0  0  0  0  0  0  0  0  0  0  0
   -0.4998   -0.9820   -1.7057 H   0  0  0  0  0  0  0  0  0  0  0  0
   -2.7719    2.5489   -1.6163 H   0  0  0  0  0  0  0  0  0  0  0  0
   -3.0773    3.5288   -0.1495 H   0  0  0  0  0  0  0  0  0  0  0  0
   -0.4508    2.1418   -0.9079 H   0  0  0  0  0  0  0  0  0  0  0  0
   -0.7520    3.8819   -0.9414 H   0  0  0  0  0  0  0  0  0  0  0  0
   -0.7261    3.0211    0.6077 H   0  0  0  0  0  0  0  0  0  0  0  0
   -5.3809   -1.1164    1.5593 H   0  0  0  0  0  0  0  0  0  0  0  0
   -5.0140    0.6227    1.3680 H   0  0  0  0  0  0  0  0  0  0  0  0
   -5.8002   -1.2651   -0.9110 H   0  0  0  0  0  0  0  0  0  0  0  0
   -6.8800   -0.0848   -0.1476 H   0  0  0  0  0  0  0  0  0  0  0  0
   -5.4689    0.4621   -1.0680 H   0  0  0  0  0  0  0  0  0  0  0  0
  1  2  1  0  0  0  0
  2  3  1  0  0  0  0
  3  4  2  0  0  0  0
  4  5  2  0  0  0  0
  4  6  2  0  0  0  0
  6  7  1  0  0  0  0
  7  8  1  0  0  0  0
  4  9  1  0  0  0  0
  9 10  1  0  0  0  0
 10 11  1  0  0  0  0
 11 12  1  0  0  0  0
 12 13  2  0  0  0  0
 12 14  2  0  0  0  0
 14 15  1  0  0  0  0
 15 16  1  0  0  0  0
 12 17  2  0  0  0  0
 17 18  1  0  0  0  0
 18 19  1  0  0  0  0
  1 20  1  0  0  0  0
  1 21  1  0  0  0  0
  1 22  1  0  0  0  0
  2 23  1  0  0  0  0
  2 24  1  0  0  0  0
  7 25  1  0  0  0  0
  7 26  1  0  0  0  0
  8 27  1  0  0  0  0
  8 28  1  0  0  0  0
  8 29  1  0  0  0  0
 10 30  1  0  0  0  0
 10 31  1  0  0  0  0
 15 32  1  0  0  0  0
 15 33  1  0  0  0  0
 16 34  1  0  0  0  0
 16 35  1  0  0  0  0
 16 36  1  0  0  0  0
 18 37  1  0  0  0  0
 18 38  1  0  0  0  0
 19 39  1  0  0  0  0
 19 40  1  0  0  0  0
 19 41  1  0  0  0  0
M  END
