 xtb: 6.7.1 (edcfbbe)
          04092513583D

 41 40  0     0  0            999 V2000
    1.6126    2.6978   -1.3646 C   0  0  0  0  0  0  0  0  0  0  0  0
    1.9951    2.4147    0.0763 C   0  0  0  0  0  0  0  0  0  0  0  0
    2.9873    1.3694    0.1212 O   0  0  0  0  0  0  0  0  0  0  0  0
    2.6850   -0.0379    0.7818 P   0  0  0  0  0  0  0  0  0  0  0  0
    2.3171   -0.0302    2.7120 S   0  0  0  0  0  0  0  0  0  0  0  0
    4.0471   -0.7058    0.3411 O   0  0  0  0  0  0  0  0  0  0  0  0
    4.5981   -1.8419    1.0301 C   0  0  0  0  0  0  0  0  0  0  0  0
    3.8029   -3.1062    0.7716 C   0  0  0  0  0  0  0  0  0  0  0  0
    1.1705   -0.9184   -0.4443 S   0  0  0  0  0  0  0  0  0  0  0  0
   -0.0966   -1.2537    0.8117 C   0  0  0  0  0  0  0  0  0  0  0  0
   -1.2994    0.0846    0.9890 S   0  0  0  0  0  0  0  0  0  0  0  0
   -2.2501   -0.1012   -0.9213 P   0  0  0  0  0  0  0  0  0  0  0  0
   -2.0251   -1.8552   -1.7642 S   0  0  0  0  0  0  0  0  0  0  0  0
   -1.7240    1.0788   -1.8224 O   0  0  0  0  0  0  0  0  0  0  0  0
   -2.2209    2.4423   -1.7958 C   0  0  0  0  0  0  0  0  0  0  0  0
   -2.0952    3.0932   -0.4345 C   0  0  0  0  0  0  0  0  0  0  0  0
   -3.7547    0.3275   -0.6457 O   0  0  0  0  0  0  0  0  0  0  0  0
   -4.6749   -0.5508    0.0333 C   0  0  0  0  0  0  0  0  0  0  0  0
   -6.0807   -0.0628   -0.2548 C   0  0  0  0  0  0  0  0  0  0  0  0
    0.9804    3.5794   -1.4023 H   0  0  0  0  0  0  0  0  0  0  0  0
    2.5105    2.8782   -1.9488 H   0  0  0  0  0  0  0  0  0  0  0  0
    1.0807    1.8516   -1.7955 H   0  0  0  0  0  0  0  0  0  0  0  0
    1.1264    2.1211    0.6773 H   0  0  0  0  0  0  0  0  0  0  0  0
    2.4652    3.2860    0.5377 H   0  0  0  0  0  0  0  0  0  0  0  0
    5.6130   -1.9189    0.6374 H   0  0  0  0  0  0  0  0  0  0  0  0
    4.6310   -1.6193    2.1017 H   0  0  0  0  0  0  0  0  0  0  0  0
    2.8163   -3.0267    1.2268 H   0  0  0  0  0  0  0  0  0  0  0  0
    3.6848   -3.2668   -0.2971 H   0  0  0  0  0  0  0  0  0  0  0  0
    4.3233   -3.9531    1.2076 H   0  0  0  0  0  0  0  0  0  0  0  0
    0.3773   -1.3656    1.7883 H   0  0  0  0  0  0  0  0  0  0  0  0
   -0.6102   -2.1613    0.4989 H   0  0  0  0  0  0  0  0  0  0  0  0
   -1.6032    2.9438   -2.5422 H   0  0  0  0  0  0  0  0  0  0  0  0
   -3.2616    2.4273   -2.1234 H   0  0  0  0  0  0  0  0  0  0  0  0
   -2.4120    4.1288   -0.5106 H   0  0  0  0  0  0  0  0  0  0  0  0
   -2.7257    2.5830    0.2908 H   0  0  0  0  0  0  0  0  0  0  0  0
   -1.0675    3.0599   -0.0839 H   0  0  0  0  0  0  0  0  0  0  0  0
   -4.5211   -1.5706   -0.3346 H   0  0  0  0  0  0  0  0  0  0  0  0
   -4.4516   -0.5168    1.1029 H   0  0  0  0  0  0  0  0  0  0  0  0
   -6.2809   -0.1058   -1.3217 H   0  0  0  0  0  0  0  0  0  0  0  0
   -6.7904   -0.6964    0.2669 H   0  0  0  0  0  0  0  0  0  0  0  0
   -6.1974    0.9619    0.0858 H   0  0  0  0  0  0  0  0  0  0  0  0
  1  2  1  0  0  0  0
  2  3  1  0  0  0  0
  3  4  2  0  0  0  0
  4  5  2  0  0  0  0
  4  6  2  0  0  0  0
  6  7  1  0  0  0  0
  7  8  1  0  0  0  0
  4  9  1  0  0  0  0
  9 10  1  0  0  0  0
 10 11  1  0  0  0  0
 11 12  1  0  0  0  0
 12 13  2  0  0  0  0
 12 14  2  0  0  0  0
 14 15  1  0  0  0  0
 15 16  1  0  0  0  0
 12 17  2  0  0  0  0
 17 18  1  0  0  0  0
 18 19  1  0  0  0  0
  1 20  1  0  0  0  0
  1 21  1  0  0  0  0
  1 22  1  0  0  0  0
  2 23  1  0  0  0  0
  2 24  1  0  0  0  0
  7 25  1  0  0  0  0
  7 26  1  0  0  0  0
  8 27  1  0  0  0  0
  8 28  1  0  0  0  0
  8 29  1  0  0  0  0
 10 30  1  0  0  0  0
 10 31  1  0  0  0  0
 15 32  1  0  0  0  0
 15 33  1  0  0  0  0
 16 34  1  0  0  0  0
 16 35  1  0  0  0  0
 16 36  1  0  0  0  0
 18 37  1  0  0  0  0
 18 38  1  0  0  0  0
 19 39  1  0  0  0  0
 19 40  1  0  0  0  0
 19 41  1  0  0  0  0
M  END
