  17
 
 C         -1.8316194702       -1.4571538826        0.0427178253
 C         -0.5314217541       -0.7067093799        0.0270918203
 C          0.6761682554       -1.3827582146        0.0386586783
 C          1.8872842761       -0.7094701103        0.0315478745
 C          1.8934205426        0.6738867300        0.0125262800
 C          0.7005907139        1.3694177411       -0.0052562517
 C         -0.5234318404        0.6989829836        0.0014386028
 N         -1.7011586521        1.4150155036        0.0562561694
 H         -2.4018279200       -1.2659310101       -0.8672259044
 H         -1.6488510064       -2.5262775940        0.1090746559
 H         -2.4367694664       -1.1551160131        0.8961767537
 H          0.6706593006       -2.4639888494        0.0552126972
 H          2.8152795063       -1.2613570914        0.0415452432
 H          2.8291229310        1.2141708740        0.0063547001
 H          0.7057178949        2.4503822337       -0.0224275231
 H         -2.5234002231        0.9497179729       -0.2899054733
 H         -1.6288928851        2.3845449019       -0.2054192044
          17
        -22.49126211
 C         -1.8642956574       -1.4123878603        0.0010162899
 C         -0.5464047066       -0.6932820606       -0.0039351813
 C          0.6445601819       -1.3983173946       -0.0002414563
 C          1.8715243173       -0.7543692114        0.0023542793
 C          1.9109190192        0.6286093607        0.0020291099
 C          0.7352000577        1.3528344404       -0.0076570238
 C         -0.5045522031        0.7120018034       -0.0114949920
 N         -1.6647435539        1.4556622574        0.0510161491
 H         -2.4292417380       -1.1950142394       -0.9062137059
 H         -1.7072077591       -2.4863469678        0.0521483004
 H         -2.4624690855       -1.1083753084        0.8585704733
 H          0.6130408609       -2.4792333993        0.0019710900
 H          2.7860703364       -1.3284220587        0.0052208381
 H          2.8594299691        1.1460711531        0.0038241696
 H          0.7663818669        2.4334608976       -0.0104954423
 H         -2.4980740122        1.0121584820       -0.2974070314
 H         -1.5697252927        2.4253071035       -0.2029287271
