 xtb: 6.7.1 (edcfbbe)
          04092514023D

 41 40  0     0  0            999 V2000
    5.9281    0.7111   -0.8879 C   0  0  0  0  0  0  0  0  0  0  0  0
    4.5215    0.2603   -1.2311 C   0  0  0  0  0  0  0  0  0  0  0  0
    3.7458    0.2518   -0.0132 O   0  0  0  0  0  0  0  0  0  0  0  0
    2.1584    0.2280   -0.0150 P   0  0  0  0  0  0  0  0  0  0  0  0
    1.2502    1.6355   -1.0330 S   0  0  0  0  0  0  0  0  0  0  0  0
    1.8096    0.3034    1.5175 O   0  0  0  0  0  0  0  0  0  0  0  0
    2.3666   -0.5945    2.5165 C   0  0  0  0  0  0  0  0  0  0  0  0
    3.4638    0.0929    3.3027 C   0  0  0  0  0  0  0  0  0  0  0  0
    1.7262   -1.7612   -0.6584 S   0  0  0  0  0  0  0  0  0  0  0  0
    0.0093   -1.5173   -1.1420 C   0  0  0  0  0  0  0  0  0  0  0  0
   -1.0813   -1.2811    0.3053 S   0  0  0  0  0  0  0  0  0  0  0  0
   -2.4076    0.2063   -0.4483 P   0  0  0  0  0  0  0  0  0  0  0  0
   -2.4472    0.3934   -2.3949 S   0  0  0  0  0  0  0  0  0  0  0  0
   -2.0714    1.5616    0.2753 O   0  0  0  0  0  0  0  0  0  0  0  0
   -1.5416    1.7116    1.6123 C   0  0  0  0  0  0  0  0  0  0  0  0
   -2.4543    1.1390    2.6743 C   0  0  0  0  0  0  0  0  0  0  0  0
   -3.8047   -0.1831    0.2067 O   0  0  0  0  0  0  0  0  0  0  0  0
   -4.6086   -1.2754   -0.2841 C   0  0  0  0  0  0  0  0  0  0  0  0
   -6.0498   -1.0271    0.1181 C   0  0  0  0  0  0  0  0  0  0  0  0
    6.5215    0.7428   -1.7962 H   0  0  0  0  0  0  0  0  0  0  0  0
    5.9061    1.7021   -0.4431 H   0  0  0  0  0  0  0  0  0  0  0  0
    6.3847    0.0183   -0.1871 H   0  0  0  0  0  0  0  0  0  0  0  0
    4.5180   -0.7511   -1.6461 H   0  0  0  0  0  0  0  0  0  0  0  0
    4.0462    0.9426   -1.9429 H   0  0  0  0  0  0  0  0  0  0  0  0
    1.5195   -0.8512    3.1549 H   0  0  0  0  0  0  0  0  0  0  0  0
    2.7379   -1.4926    2.0168 H   0  0  0  0  0  0  0  0  0  0  0  0
    4.3007    0.3376    2.6543 H   0  0  0  0  0  0  0  0  0  0  0  0
    3.0880    1.0084    3.7512 H   0  0  0  0  0  0  0  0  0  0  0  0
    3.8027   -0.5759    4.0881 H   0  0  0  0  0  0  0  0  0  0  0  0
   -0.2926   -2.4203   -1.6668 H   0  0  0  0  0  0  0  0  0  0  0  0
   -0.0776   -0.6403   -1.7887 H   0  0  0  0  0  0  0  0  0  0  0  0
   -0.5543    1.2402    1.6420 H   0  0  0  0  0  0  0  0  0  0  0  0
   -1.4250    2.7917    1.7124 H   0  0  0  0  0  0  0  0  0  0  0  0
   -2.5339    0.0591    2.5629 H   0  0  0  0  0  0  0  0  0  0  0  0
   -2.0399    1.3656    3.6519 H   0  0  0  0  0  0  0  0  0  0  0  0
   -3.4456    1.5768    2.5917 H   0  0  0  0  0  0  0  0  0  0  0  0
   -4.5036   -1.3274   -1.3731 H   0  0  0  0  0  0  0  0  0  0  0  0
   -4.2276   -2.1988    0.1600 H   0  0  0  0  0  0  0  0  0  0  0  0
   -6.6586   -1.8611   -0.2166 H   0  0  0  0  0  0  0  0  0  0  0  0
   -6.1279   -0.9370    1.1975 H   0  0  0  0  0  0  0  0  0  0  0  0
   -6.4160   -0.1124   -0.3396 H   0  0  0  0  0  0  0  0  0  0  0  0
  1  2  1  0  0  0  0
  2  3  1  0  0  0  0
  3  4  2  0  0  0  0
  4  5  2  0  0  0  0
  4  6  2  0  0  0  0
  6  7  1  0  0  0  0
  7  8  1  0  0  0  0
  4  9  1  0  0  0  0
  9 10  1  0  0  0  0
 10 11  1  0  0  0  0
 11 12  1  0  0  0  0
 12 13  2  0  0  0  0
 12 14  2  0  0  0  0
 14 15  1  0  0  0  0
 15 16  1  0  0  0  0
 12 17  2  0  0  0  0
 17 18  1  0  0  0  0
 18 19  1  0  0  0  0
  1 20  1  0  0  0  0
  1 21  1  0  0  0  0
  1 22  1  0  0  0  0
  2 23  1  0  0  0  0
  2 24  1  0  0  0  0
  7 25  1  0  0  0  0
  7 26  1  0  0  0  0
  8 27  1  0  0  0  0
  8 28  1  0  0  0  0
  8 29  1  0  0  0  0
 10 30  1  0  0  0  0
 10 31  1  0  0  0  0
 15 32  1  0  0  0  0
 15 33  1  0  0  0  0
 16 34  1  0  0  0  0
 16 35  1  0  0  0  0
 16 36  1  0  0  0  0
 18 37  1  0  0  0  0
 18 38  1  0  0  0  0
 19 39  1  0  0  0  0
 19 40  1  0  0  0  0
 19 41  1  0  0  0  0
M  END
