 xtb: 6.7.1 (edcfbbe)
          04092505203D

 41 40  0     0  0            999 V2000
    4.1835    2.2938   -0.3950 C   0  0  0  0  0  0  0  0  0  0  0  0
    2.9995    1.5207   -0.9386 C   0  0  0  0  0  0  0  0  0  0  0  0
    2.0075    1.3221    0.0961 O   0  0  0  0  0  0  0  0  0  0  0  0
    1.8218   -0.0541    0.8454 P   0  0  0  0  0  0  0  0  0  0  0  0
    0.4268    0.0735    2.2119 S   0  0  0  0  0  0  0  0  0  0  0  0
    3.3111   -0.3134    1.3486 O   0  0  0  0  0  0  0  0  0  0  0  0
    3.8378   -1.5763    1.7930 C   0  0  0  0  0  0  0  0  0  0  0  0
    3.0139   -2.2062    2.8963 C   0  0  0  0  0  0  0  0  0  0  0  0
    1.5822   -1.5695   -0.6400 S   0  0  0  0  0  0  0  0  0  0  0  0
   -0.1491   -2.0162   -0.3832 C   0  0  0  0  0  0  0  0  0  0  0  0
   -1.2489   -1.4617   -1.7313 S   0  0  0  0  0  0  0  0  0  0  0  0
   -2.0866    0.2580   -0.8783 P   0  0  0  0  0  0  0  0  0  0  0  0
   -3.5270    1.1202   -1.8853 S   0  0  0  0  0  0  0  0  0  0  0  0
   -0.7646    1.1145   -0.6419 O   0  0  0  0  0  0  0  0  0  0  0  0
   -0.8897    2.4804   -0.1805 C   0  0  0  0  0  0  0  0  0  0  0  0
   -0.7304    3.4462   -1.3358 C   0  0  0  0  0  0  0  0  0  0  0  0
   -2.4871   -0.1134    0.6214 O   0  0  0  0  0  0  0  0  0  0  0  0
   -3.8073   -0.5636    0.9665 C   0  0  0  0  0  0  0  0  0  0  0  0
   -4.0579   -1.9826    0.4972 C   0  0  0  0  0  0  0  0  0  0  0  0
    3.8517    3.2442    0.0138 H   0  0  0  0  0  0  0  0  0  0  0  0
    4.6727    1.7262    0.3920 H   0  0  0  0  0  0  0  0  0  0  0  0
    4.8889    2.4757   -1.1998 H   0  0  0  0  0  0  0  0  0  0  0  0
    3.3067    0.5480   -1.3335 H   0  0  0  0  0  0  0  0  0  0  0  0
    2.4831    2.0811   -1.7207 H   0  0  0  0  0  0  0  0  0  0  0  0
    3.9008   -2.2426    0.9283 H   0  0  0  0  0  0  0  0  0  0  0  0
    4.8415   -1.3267    2.1419 H   0  0  0  0  0  0  0  0  0  0  0  0
    2.8917   -1.5109    3.7235 H   0  0  0  0  0  0  0  0  0  0  0  0
    2.0256   -2.4728    2.5249 H   0  0  0  0  0  0  0  0  0  0  0  0
    3.5127   -3.1025    3.2506 H   0  0  0  0  0  0  0  0  0  0  0  0
   -0.4868   -1.5885    0.5649 H   0  0  0  0  0  0  0  0  0  0  0  0
   -0.2035   -3.1013   -0.3825 H   0  0  0  0  0  0  0  0  0  0  0  0
   -1.8612    2.6035    0.3067 H   0  0  0  0  0  0  0  0  0  0  0  0
   -0.0993    2.6020    0.5626 H   0  0  0  0  0  0  0  0  0  0  0  0
    0.2203    3.2795   -1.8341 H   0  0  0  0  0  0  0  0  0  0  0  0
   -1.5348    3.3047   -2.0548 H   0  0  0  0  0  0  0  0  0  0  0  0
   -0.7658    4.4625   -0.9567 H   0  0  0  0  0  0  0  0  0  0  0  0
   -3.8355   -0.4834    2.0541 H   0  0  0  0  0  0  0  0  0  0  0  0
   -4.5341    0.1237    0.5207 H   0  0  0  0  0  0  0  0  0  0  0  0
   -4.0255   -2.0243   -0.5914 H   0  0  0  0  0  0  0  0  0  0  0  0
   -3.3055   -2.6549    0.9013 H   0  0  0  0  0  0  0  0  0  0  0  0
   -5.0399   -2.3008    0.8321 H   0  0  0  0  0  0  0  0  0  0  0  0
  1  2  1  0  0  0  0
  2  3  1  0  0  0  0
  3  4  2  0  0  0  0
  4  5  2  0  0  0  0
  4  6  2  0  0  0  0
  6  7  1  0  0  0  0
  7  8  1  0  0  0  0
  4  9  1  0  0  0  0
  9 10  1  0  0  0  0
 10 11  1  0  0  0  0
 11 12  1  0  0  0  0
 12 13  2  0  0  0  0
 12 14  1  0  0  0  0
 14 15  1  0  0  0  0
 15 16  1  0  0  0  0
 12 17  2  0  0  0  0
 17 18  1  0  0  0  0
 18 19  1  0  0  0  0
  1 20  1  0  0  0  0
  1 21  1  0  0  0  0
  1 22  1  0  0  0  0
  2 23  1  0  0  0  0
  2 24  1  0  0  0  0
  7 25  1  0  0  0  0
  7 26  1  0  0  0  0
  8 27  1  0  0  0  0
  8 28  1  0  0  0  0
  8 29  1  0  0  0  0
 10 30  1  0  0  0  0
 10 31  1  0  0  0  0
 15 32  1  0  0  0  0
 15 33  1  0  0  0  0
 16 34  1  0  0  0  0
 16 35  1  0  0  0  0
 16 36  1  0  0  0  0
 18 37  1  0  0  0  0
 18 38  1  0  0  0  0
 19 39  1  0  0  0  0
 19 40  1  0  0  0  0
 19 41  1  0  0  0  0
M  END
