 xtb: 6.7.1 (edcfbbe)
          04092505213D

 41 40  0     0  0            999 V2000
    1.2443    0.5624    2.8450 C   0  0  0  0  0  0  0  0  0  0  0  0
    2.7294    0.3448    2.6387 C   0  0  0  0  0  0  0  0  0  0  0  0
    3.1318    0.6222    1.2863 O   0  0  0  0  0  0  0  0  0  0  0  0
    2.7257   -0.3157    0.0677 P   0  0  0  0  0  0  0  0  0  0  0  0
    2.7516   -2.2397    0.4638 S   0  0  0  0  0  0  0  0  0  0  0  0
    3.7142    0.1792   -1.0647 O   0  0  0  0  0  0  0  0  0  0  0  0
    5.0324   -0.3825   -1.2385 C   0  0  0  0  0  0  0  0  0  0  0  0
    5.9494   -0.0654   -0.0757 C   0  0  0  0  0  0  0  0  0  0  0  0
    0.9447    0.5016   -0.7462 S   0  0  0  0  0  0  0  0  0  0  0  0
   -0.0907   -0.9956   -0.7688 C   0  0  0  0  0  0  0  0  0  0  0  0
   -1.4077   -0.9574    0.4651 S   0  0  0  0  0  0  0  0  0  0  0  0
   -2.6662    0.3861   -0.6153 P   0  0  0  0  0  0  0  0  0  0  0  0
   -2.8159    0.0505   -2.5353 S   0  0  0  0  0  0  0  0  0  0  0  0
   -2.0771    1.8187   -0.3277 O   0  0  0  0  0  0  0  0  0  0  0  0
   -1.8490    2.3568    0.9977 C   0  0  0  0  0  0  0  0  0  0  0  0
   -3.0226    3.2024    1.4475 C   0  0  0  0  0  0  0  0  0  0  0  0
   -4.0268    0.3823    0.2051 O   0  0  0  0  0  0  0  0  0  0  0  0
   -5.0807   -0.5667   -0.0433 C   0  0  0  0  0  0  0  0  0  0  0  0
   -4.6709   -1.9857    0.2926 C   0  0  0  0  0  0  0  0  0  0  0  0
    0.6753   -0.1787    2.2834 H   0  0  0  0  0  0  0  0  0  0  0  0
    1.0079    0.4564    3.8988 H   0  0  0  0  0  0  0  0  0  0  0  0
    0.9613    1.5569    2.5093 H   0  0  0  0  0  0  0  0  0  0  0  0
    3.0038   -0.6878    2.8775 H   0  0  0  0  0  0  0  0  0  0  0  0
    3.3245    1.0363    3.2368 H   0  0  0  0  0  0  0  0  0  0  0  0
    4.9313   -1.4649   -1.3674 H   0  0  0  0  0  0  0  0  0  0  0  0
    5.3846    0.0693   -2.1668 H   0  0  0  0  0  0  0  0  0  0  0  0
    5.6047   -0.5778    0.8213 H   0  0  0  0  0  0  0  0  0  0  0  0
    6.9543   -0.4029   -0.3099 H   0  0  0  0  0  0  0  0  0  0  0  0
    5.9606    1.0050    0.1121 H   0  0  0  0  0  0  0  0  0  0  0  0
    0.5319   -1.8657   -0.5495 H   0  0  0  0  0  0  0  0  0  0  0  0
   -0.5451   -1.0705   -1.7573 H   0  0  0  0  0  0  0  0  0  0  0  0
   -1.6700    1.5295    1.6903 H   0  0  0  0  0  0  0  0  0  0  0  0
   -0.9420    2.9550    0.8891 H   0  0  0  0  0  0  0  0  0  0  0  0
   -2.7871    3.6539    2.4061 H   0  0  0  0  0  0  0  0  0  0  0  0
   -3.2177    3.9854    0.7198 H   0  0  0  0  0  0  0  0  0  0  0  0
   -3.9126    2.5875    1.5486 H   0  0  0  0  0  0  0  0  0  0  0  0
   -5.8956   -0.2217    0.5946 H   0  0  0  0  0  0  0  0  0  0  0  0
   -5.3723   -0.4890   -1.0950 H   0  0  0  0  0  0  0  0  0  0  0  0
   -5.5377   -2.6348    0.2202 H   0  0  0  0  0  0  0  0  0  0  0  0
   -3.9137   -2.3320   -0.4091 H   0  0  0  0  0  0  0  0  0  0  0  0
   -4.2647   -2.0353    1.2998 H   0  0  0  0  0  0  0  0  0  0  0  0
  1  2  1  0  0  0  0
  2  3  1  0  0  0  0
  3  4  2  0  0  0  0
  4  5  2  0  0  0  0
  4  6  2  0  0  0  0
  6  7  1  0  0  0  0
  7  8  1  0  0  0  0
  4  9  1  0  0  0  0
  9 10  1  0  0  0  0
 10 11  1  0  0  0  0
 11 12  1  0  0  0  0
 12 13  2  0  0  0  0
 12 14  2  0  0  0  0
 14 15  1  0  0  0  0
 15 16  1  0  0  0  0
 12 17  2  0  0  0  0
 17 18  1  0  0  0  0
 18 19  1  0  0  0  0
  1 20  1  0  0  0  0
  1 21  1  0  0  0  0
  1 22  1  0  0  0  0
  2 23  1  0  0  0  0
  2 24  1  0  0  0  0
  7 25  1  0  0  0  0
  7 26  1  0  0  0  0
  8 27  1  0  0  0  0
  8 28  1  0  0  0  0
  8 29  1  0  0  0  0
 10 30  1  0  0  0  0
 10 31  1  0  0  0  0
 15 32  1  0  0  0  0
 15 33  1  0  0  0  0
 16 34  1  0  0  0  0
 16 35  1  0  0  0  0
 16 36  1  0  0  0  0
 18 37  1  0  0  0  0
 18 38  1  0  0  0  0
 19 39  1  0  0  0  0
 19 40  1  0  0  0  0
 19 41  1  0  0  0  0
M  END
