 xtb: 6.7.1 (edcfbbe)
          04092505203D

 41 40  0     0  0            999 V2000
    2.9491    0.4747   -2.9947 C   0  0  0  0  0  0  0  0  0  0  0  0
    2.6307   -0.9351   -2.5384 C   0  0  0  0  0  0  0  0  0  0  0  0
    1.7302   -0.9445   -1.4115 O   0  0  0  0  0  0  0  0  0  0  0  0
    2.1482   -0.5953    0.0744 P   0  0  0  0  0  0  0  0  0  0  0  0
    2.7511    1.2145    0.5569 S   0  0  0  0  0  0  0  0  0  0  0  0
    3.2735   -1.7014    0.3109 O   0  0  0  0  0  0  0  0  0  0  0  0
    4.1897   -1.6464    1.4157 C   0  0  0  0  0  0  0  0  0  0  0  0
    3.4920   -1.8631    2.7431 C   0  0  0  0  0  0  0  0  0  0  0  0
    0.4336   -1.3177    1.0574 S   0  0  0  0  0  0  0  0  0  0  0  0
   -0.1485    0.2151    1.8719 C   0  0  0  0  0  0  0  0  0  0  0  0
   -1.9307    0.4323    1.7417 S   0  0  0  0  0  0  0  0  0  0  0  0
   -2.1269    0.9280   -0.3261 P   0  0  0  0  0  0  0  0  0  0  0  0
   -0.4571    1.4402   -1.2170 S   0  0  0  0  0  0  0  0  0  0  0  0
   -3.1503    2.1177   -0.4264 O   0  0  0  0  0  0  0  0  0  0  0  0
   -4.5816    2.0271   -0.2147 C   0  0  0  0  0  0  0  0  0  0  0  0
   -4.9362    1.6413    1.2053 C   0  0  0  0  0  0  0  0  0  0  0  0
   -2.9824   -0.2630   -0.9495 O   0  0  0  0  0  0  0  0  0  0  0  0
   -2.6181   -1.6534   -0.9317 C   0  0  0  0  0  0  0  0  0  0  0  0
   -1.6345   -1.9929   -2.0336 C   0  0  0  0  0  0  0  0  0  0  0  0
    3.5002    0.4385   -3.9288 H   0  0  0  0  0  0  0  0  0  0  0  0
    2.0262    1.0333   -3.1385 H   0  0  0  0  0  0  0  0  0  0  0  0
    3.5466    0.9941   -2.2478 H   0  0  0  0  0  0  0  0  0  0  0  0
    3.5379   -1.4815   -2.2687 H   0  0  0  0  0  0  0  0  0  0  0  0
    2.0814   -1.4829   -3.3064 H   0  0  0  0  0  0  0  0  0  0  0  0
    4.9070   -2.4398    1.2014 H   0  0  0  0  0  0  0  0  0  0  0  0
    4.6907   -0.6731    1.4006 H   0  0  0  0  0  0  0  0  0  0  0  0
    2.8964   -2.7720    2.7139 H   0  0  0  0  0  0  0  0  0  0  0  0
    4.2342   -1.9407    3.5310 H   0  0  0  0  0  0  0  0  0  0  0  0
    2.8389   -1.0178    2.9569 H   0  0  0  0  0  0  0  0  0  0  0  0
    0.3717    1.0631    1.4186 H   0  0  0  0  0  0  0  0  0  0  0  0
    0.0594    0.1475    2.9368 H   0  0  0  0  0  0  0  0  0  0  0  0
   -4.9292    3.0327   -0.4567 H   0  0  0  0  0  0  0  0  0  0  0  0
   -4.9868    1.3107   -0.9312 H   0  0  0  0  0  0  0  0  0  0  0  0
   -6.0141    1.6891    1.3254 H   0  0  0  0  0  0  0  0  0  0  0  0
   -4.6003    0.6287    1.4216 H   0  0  0  0  0  0  0  0  0  0  0  0
   -4.4666    2.3209    1.9117 H   0  0  0  0  0  0  0  0  0  0  0  0
   -2.2052   -1.9062    0.0503 H   0  0  0  0  0  0  0  0  0  0  0  0
   -3.5667   -2.1742   -1.0761 H   0  0  0  0  0  0  0  0  0  0  0  0
   -1.4448   -3.0614   -2.0265 H   0  0  0  0  0  0  0  0  0  0  0  0
   -2.0366   -1.7013   -3.0003 H   0  0  0  0  0  0  0  0  0  0  0  0
   -0.6934   -1.4686   -1.8782 H   0  0  0  0  0  0  0  0  0  0  0  0
  1  2  1  0  0  0  0
  2  3  1  0  0  0  0
  3  4  2  0  0  0  0
  4  5  2  0  0  0  0
  4  6  2  0  0  0  0
  6  7  1  0  0  0  0
  7  8  1  0  0  0  0
  4  9  1  0  0  0  0
  9 10  1  0  0  0  0
 10 11  1  0  0  0  0
 11 12  1  0  0  0  0
 12 13  2  0  0  0  0
 12 14  2  0  0  0  0
 14 15  1  0  0  0  0
 15 16  1  0  0  0  0
 12 17  2  0  0  0  0
 17 18  1  0  0  0  0
 18 19  1  0  0  0  0
  1 20  1  0  0  0  0
  1 21  1  0  0  0  0
  1 22  1  0  0  0  0
  2 23  1  0  0  0  0
  2 24  1  0  0  0  0
  7 25  1  0  0  0  0
  7 26  1  0  0  0  0
  8 27  1  0  0  0  0
  8 28  1  0  0  0  0
  8 29  1  0  0  0  0
 10 30  1  0  0  0  0
 10 31  1  0  0  0  0
 15 32  1  0  0  0  0
 15 33  1  0  0  0  0
 16 34  1  0  0  0  0
 16 35  1  0  0  0  0
 16 36  1  0  0  0  0
 18 37  1  0  0  0  0
 18 38  1  0  0  0  0
 19 39  1  0  0  0  0
 19 40  1  0  0  0  0
 19 41  1  0  0  0  0
M  END
