 xtb: 6.7.1 (edcfbbe)
          04092505203D

 41 40  0     0  0            999 V2000
    4.0803    0.3626   -2.6427 C   0  0  0  0  0  0  0  0  0  0  0  0
    2.6694   -0.0486   -2.2791 C   0  0  0  0  0  0  0  0  0  0  0  0
    2.1843    0.7454   -1.1689 O   0  0  0  0  0  0  0  0  0  0  0  0
    2.0795    0.2046    0.3010 P   0  0  0  0  0  0  0  0  0  0  0  0
    1.3152    1.5682    1.4743 S   0  0  0  0  0  0  0  0  0  0  0  0
    3.5925   -0.2207    0.5714 O   0  0  0  0  0  0  0  0  0  0  0  0
    4.0455   -1.0743    1.6375 C   0  0  0  0  0  0  0  0  0  0  0  0
    3.7141   -0.5271    3.0105 C   0  0  0  0  0  0  0  0  0  0  0  0
    1.0781   -1.6810    0.2633 S   0  0  0  0  0  0  0  0  0  0  0  0
   -0.2575   -1.3499    1.4513 C   0  0  0  0  0  0  0  0  0  0  0  0
   -1.9260   -1.5128    0.7701 S   0  0  0  0  0  0  0  0  0  0  0  0
   -2.0007    0.1955   -0.5038 P   0  0  0  0  0  0  0  0  0  0  0  0
   -0.8175    0.2570   -2.0599 S   0  0  0  0  0  0  0  0  0  0  0  0
   -1.7230    1.4492    0.4048 O   0  0  0  0  0  0  0  0  0  0  0  0
   -2.4471    1.7659    1.6194 C   0  0  0  0  0  0  0  0  0  0  0  0
   -3.5013    2.8184    1.3479 C   0  0  0  0  0  0  0  0  0  0  0  0
   -3.5589    0.3068   -0.7935 O   0  0  0  0  0  0  0  0  0  0  0  0
   -4.4021   -0.7773   -1.2284 C   0  0  0  0  0  0  0  0  0  0  0  0
   -3.8532   -1.5036   -2.4378 C   0  0  0  0  0  0  0  0  0  0  0  0
    4.1069    1.4219   -2.8823 H   0  0  0  0  0  0  0  0  0  0  0  0
    4.7529    0.1739   -1.8098 H   0  0  0  0  0  0  0  0  0  0  0  0
    4.4035   -0.2100   -3.5061 H   0  0  0  0  0  0  0  0  0  0  0  0
    2.6176   -1.1077   -2.0104 H   0  0  0  0  0  0  0  0  0  0  0  0
    1.9627    0.1493   -3.0882 H   0  0  0  0  0  0  0  0  0  0  0  0
    3.6029   -2.0646    1.4959 H   0  0  0  0  0  0  0  0  0  0  0  0
    5.1244   -1.1262    1.4813 H   0  0  0  0  0  0  0  0  0  0  0  0
    2.6358   -0.5000    3.1580 H   0  0  0  0  0  0  0  0  0  0  0  0
    4.1613   -1.1629    3.7677 H   0  0  0  0  0  0  0  0  0  0  0  0
    4.0971    0.4850    3.1167 H   0  0  0  0  0  0  0  0  0  0  0  0
   -0.1136   -0.3414    1.8525 H   0  0  0  0  0  0  0  0  0  0  0  0
   -0.1989   -2.1032    2.2332 H   0  0  0  0  0  0  0  0  0  0  0  0
   -2.8952    0.8511    2.0178 H   0  0  0  0  0  0  0  0  0  0  0  0
   -1.6777    2.1343    2.3026 H   0  0  0  0  0  0  0  0  0  0  0  0
   -4.2372    2.4408    0.6426 H   0  0  0  0  0  0  0  0  0  0  0  0
   -3.9927    3.0760    2.2808 H   0  0  0  0  0  0  0  0  0  0  0  0
   -3.0379    3.7071    0.9282 H   0  0  0  0  0  0  0  0  0  0  0  0
   -4.5276   -1.4660   -0.3882 H   0  0  0  0  0  0  0  0  0  0  0  0
   -5.3516   -0.2887   -1.4541 H   0  0  0  0  0  0  0  0  0  0  0  0
   -4.5655   -2.2560   -2.7605 H   0  0  0  0  0  0  0  0  0  0  0  0
   -3.6716   -0.8045   -3.2510 H   0  0  0  0  0  0  0  0  0  0  0  0
   -2.9108   -1.9900   -2.1883 H   0  0  0  0  0  0  0  0  0  0  0  0
  1  2  1  0  0  0  0
  2  3  1  0  0  0  0
  3  4  2  0  0  0  0
  4  5  2  0  0  0  0
  4  6  2  0  0  0  0
  6  7  1  0  0  0  0
  7  8  1  0  0  0  0
  4  9  1  0  0  0  0
  9 10  1  0  0  0  0
 10 11  1  0  0  0  0
 11 12  1  0  0  0  0
 12 13  2  0  0  0  0
 12 14  2  0  0  0  0
 14 15  1  0  0  0  0
 15 16  1  0  0  0  0
 12 17  2  0  0  0  0
 17 18  1  0  0  0  0
 18 19  1  0  0  0  0
  1 20  1  0  0  0  0
  1 21  1  0  0  0  0
  1 22  1  0  0  0  0
  2 23  1  0  0  0  0
  2 24  1  0  0  0  0
  7 25  1  0  0  0  0
  7 26  1  0  0  0  0
  8 27  1  0  0  0  0
  8 28  1  0  0  0  0
  8 29  1  0  0  0  0
 10 30  1  0  0  0  0
 10 31  1  0  0  0  0
 15 32  1  0  0  0  0
 15 33  1  0  0  0  0
 16 34  1  0  0  0  0
 16 35  1  0  0  0  0
 16 36  1  0  0  0  0
 18 37  1  0  0  0  0
 18 38  1  0  0  0  0
 19 39  1  0  0  0  0
 19 40  1  0  0  0  0
 19 41  1  0  0  0  0
M  END
