 xtb: 6.7.1 (edcfbbe)
          04092505213D

 41 40  0     0  0            999 V2000
    3.9421   -1.2335   -2.6275 C   0  0  0  0  0  0  0  0  0  0  0  0
    4.4815   -1.3823   -1.2186 C   0  0  0  0  0  0  0  0  0  0  0  0
    3.4333   -1.6069   -0.2610 O   0  0  0  0  0  0  0  0  0  0  0  0
    2.4275   -0.4625    0.1594 P   0  0  0  0  0  0  0  0  0  0  0  0
    3.2044    1.3435    0.2044 S   0  0  0  0  0  0  0  0  0  0  0  0
    2.0077   -1.1443    1.5239 O   0  0  0  0  0  0  0  0  0  0  0  0
    0.8809   -0.7777    2.3382 C   0  0  0  0  0  0  0  0  0  0  0  0
    1.0948    0.5383    3.0605 C   0  0  0  0  0  0  0  0  0  0  0  0
    0.7471   -0.7032   -1.1438 S   0  0  0  0  0  0  0  0  0  0  0  0
    0.2695    1.0331   -1.3015 C   0  0  0  0  0  0  0  0  0  0  0  0
   -0.7325    1.6337    0.0849 S   0  0  0  0  0  0  0  0  0  0  0  0
   -2.4569    0.5027   -0.3611 P   0  0  0  0  0  0  0  0  0  0  0  0
   -2.9325    0.3116   -2.2455 S   0  0  0  0  0  0  0  0  0  0  0  0
   -3.6304    1.1793    0.4608 O   0  0  0  0  0  0  0  0  0  0  0  0
   -3.6198    1.3272    1.9039 C   0  0  0  0  0  0  0  0  0  0  0  0
   -3.1468    2.7096    2.3056 C   0  0  0  0  0  0  0  0  0  0  0  0
   -2.1226   -0.8625    0.4101 O   0  0  0  0  0  0  0  0  0  0  0  0
   -2.5588   -2.1604   -0.0486 C   0  0  0  0  0  0  0  0  0  0  0  0
   -1.5907   -3.2021    0.4743 C   0  0  0  0  0  0  0  0  0  0  0  0
    4.7706   -1.1967   -3.3277 H   0  0  0  0  0  0  0  0  0  0  0  0
    3.2969   -2.0726   -2.8752 H   0  0  0  0  0  0  0  0  0  0  0  0
    3.3687   -0.3114   -2.7129 H   0  0  0  0  0  0  0  0  0  0  0  0
    5.0407   -0.4882   -0.9238 H   0  0  0  0  0  0  0  0  0  0  0  0
    5.1172   -2.2636   -1.1231 H   0  0  0  0  0  0  0  0  0  0  0  0
   -0.0174   -0.7406    1.7146 H   0  0  0  0  0  0  0  0  0  0  0  0
    0.7985   -1.6064    3.0444 H   0  0  0  0  0  0  0  0  0  0  0  0
    2.0291    0.5121    3.6152 H   0  0  0  0  0  0  0  0  0  0  0  0
    1.1339    1.3631    2.3513 H   0  0  0  0  0  0  0  0  0  0  0  0
    0.2731    0.7071    3.7491 H   0  0  0  0  0  0  0  0  0  0  0  0
   -0.3080    1.1207   -2.2212 H   0  0  0  0  0  0  0  0  0  0  0  0
    1.1647    1.6567   -1.3229 H   0  0  0  0  0  0  0  0  0  0  0  0
   -4.6594    1.1668    2.1949 H   0  0  0  0  0  0  0  0  0  0  0  0
   -2.9880    0.5482    2.3367 H   0  0  0  0  0  0  0  0  0  0  0  0
   -3.2486    2.8195    3.3807 H   0  0  0  0  0  0  0  0  0  0  0  0
   -2.1046    2.8557    2.0296 H   0  0  0  0  0  0  0  0  0  0  0  0
   -3.7483    3.4664    1.8098 H   0  0  0  0  0  0  0  0  0  0  0  0
   -3.5692   -2.3293    0.3325 H   0  0  0  0  0  0  0  0  0  0  0  0
   -2.5879   -2.1517   -1.1428 H   0  0  0  0  0  0  0  0  0  0  0  0
   -1.9217   -4.1828    0.1488 H   0  0  0  0  0  0  0  0  0  0  0  0
   -0.5922   -3.0181    0.0859 H   0  0  0  0  0  0  0  0  0  0  0  0
   -1.5610   -3.1754    1.5598 H   0  0  0  0  0  0  0  0  0  0  0  0
  1  2  1  0  0  0  0
  2  3  1  0  0  0  0
  3  4  2  0  0  0  0
  4  5  2  0  0  0  0
  4  6  2  0  0  0  0
  6  7  1  0  0  0  0
  7  8  1  0  0  0  0
  4  9  1  0  0  0  0
  9 10  1  0  0  0  0
 10 11  1  0  0  0  0
 11 12  1  0  0  0  0
 12 13  2  0  0  0  0
 12 14  2  0  0  0  0
 14 15  1  0  0  0  0
 15 16  1  0  0  0  0
 12 17  1  0  0  0  0
 17 18  1  0  0  0  0
 18 19  1  0  0  0  0
  1 20  1  0  0  0  0
  1 21  1  0  0  0  0
  1 22  1  0  0  0  0
  2 23  1  0  0  0  0
  2 24  1  0  0  0  0
  7 25  1  0  0  0  0
  7 26  1  0  0  0  0
  8 27  1  0  0  0  0
  8 28  1  0  0  0  0
  8 29  1  0  0  0  0
 10 30  1  0  0  0  0
 10 31  1  0  0  0  0
 15 32  1  0  0  0  0
 15 33  1  0  0  0  0
 16 34  1  0  0  0  0
 16 35  1  0  0  0  0
 16 36  1  0  0  0  0
 18 37  1  0  0  0  0
 18 38  1  0  0  0  0
 19 39  1  0  0  0  0
 19 40  1  0  0  0  0
 19 41  1  0  0  0  0
M  END
