 xtb: 6.7.1 (edcfbbe)
          04092507313D

 38 37  0     0  0            999 V2000
    4.5845    0.8277   -0.6132 C   0  0  0  0  0  0  0  0  0  0  0  0
    4.2686    0.0813   -1.8987 C   0  0  0  0  0  0  0  0  0  0  0  0
    2.8849   -0.3178   -1.9365 O   0  0  0  0  0  0  0  0  0  0  0  0
    2.5475   -1.4770   -1.4064 C   0  0  0  0  0  0  0  0  0  0  0  0
    3.3215   -2.2662   -0.9158 O   0  0  0  0  0  0  0  0  0  0  0  0
    1.0535   -1.7259   -1.5330 C   0  0  0  0  0  0  0  0  0  0  0  0
    0.2608   -0.6121   -0.8518 C   0  0  0  0  0  0  0  0  0  0  0  0
    0.5391    0.3602   -1.2698 H   0  0  0  0  0  0  0  0  0  0  0  0
    0.5007   -0.5840    0.6458 C   0  0  0  0  0  0  0  0  0  0  0  0
   -0.4035   -0.6831    1.4509 O   0  0  0  0  0  0  0  0  0  0  0  0
    1.7639   -0.4493    0.9378 O   0  0  0  0  0  0  0  0  0  0  0  0
    2.1398   -0.3371    2.3291 C   0  0  0  0  0  0  0  0  0  0  0  0
    2.2348    1.1253    2.7304 C   0  0  0  0  0  0  0  0  0  0  0  0
   -1.5239   -0.8707   -1.1220 S   0  0  0  0  0  0  0  0  0  0  0  0
   -2.2616    0.7135    0.1043 P   0  0  0  0  0  0  0  0  0  0  0  0
   -1.0593    2.1623    0.6366 S   0  0  0  0  0  0  0  0  0  0  0  0
   -3.3680    1.3358   -0.8531 O   0  0  0  0  0  0  0  0  0  0  0  0
   -4.4408    0.5623   -1.4182 C   0  0  0  0  0  0  0  0  0  0  0  0
   -3.2182    0.0815    1.2158 O   0  0  0  0  0  0  0  0  0  0  0  0
   -2.9073   -0.2388    2.5712 C   0  0  0  0  0  0  0  0  0  0  0  0
    3.9160    1.6775   -0.5012 H   0  0  0  0  0  0  0  0  0  0  0  0
    4.4598    0.1651    0.2392 H   0  0  0  0  0  0  0  0  0  0  0  0
    5.6104    1.1793   -0.6443 H   0  0  0  0  0  0  0  0  0  0  0  0
    4.8909   -0.8133   -1.9908 H   0  0  0  0  0  0  0  0  0  0  0  0
    4.3908    0.7228   -2.7717 H   0  0  0  0  0  0  0  0  0  0  0  0
    0.8171   -2.6934   -1.0897 H   0  0  0  0  0  0  0  0  0  0  0  0
    0.7918   -1.7422   -2.5921 H   0  0  0  0  0  0  0  0  0  0  0  0
    1.3952   -0.8627    2.9321 H   0  0  0  0  0  0  0  0  0  0  0  0
    3.1051   -0.8401    2.3962 H   0  0  0  0  0  0  0  0  0  0  0  0
    1.2817    1.6234    2.5598 H   0  0  0  0  0  0  0  0  0  0  0  0
    2.4872    1.1916    3.7832 H   0  0  0  0  0  0  0  0  0  0  0  0
    2.9976    1.6307    2.1454 H   0  0  0  0  0  0  0  0  0  0  0  0
   -4.0387   -0.3073   -1.9393 H   0  0  0  0  0  0  0  0  0  0  0  0
   -4.9373    1.2323   -2.1153 H   0  0  0  0  0  0  0  0  0  0  0  0
   -5.1230    0.2454   -0.6317 H   0  0  0  0  0  0  0  0  0  0  0  0
   -3.8530   -0.1801    3.1059 H   0  0  0  0  0  0  0  0  0  0  0  0
   -2.1930    0.4779    2.9762 H   0  0  0  0  0  0  0  0  0  0  0  0
   -2.4886   -1.2415    2.6269 H   0  0  0  0  0  0  0  0  0  0  0  0
  1  2  1  0  0  0  0
  2  3  1  0  0  0  0
  3  4  1  0  0  0  0
  4  5  2  0  0  0  0
  4  6  1  0  0  0  0
  6  7  1  0  0  0  0
  7  8  1  0  0  0  0
  7  9  1  0  0  0  0
  9 10  2  0  0  0  0
  9 11  4  0  0  0  0
 11 12  1  0  0  0  0
 12 13  1  0  0  0  0
  7 14  1  0  0  0  0
 14 15  1  0  0  0  0
 15 16  2  0  0  0  0
 15 17  2  0  0  0  0
 17 18  1  0  0  0  0
 15 19  2  0  0  0  0
 19 20  1  0  0  0  0
  1 21  1  0  0  0  0
  1 22  1  0  0  0  0
  1 23  1  0  0  0  0
  2 24  1  0  0  0  0
  2 25  1  0  0  0  0
  6 26  1  0  0  0  0
  6 27  1  0  0  0  0
 12 28  1  0  0  0  0
 12 29  1  0  0  0  0
 13 30  1  0  0  0  0
 13 31  1  0  0  0  0
 13 32  1  0  0  0  0
 18 33  1  0  0  0  0
 18 34  1  0  0  0  0
 18 35  1  0  0  0  0
 20 36  1  0  0  0  0
 20 37  1  0  0  0  0
 20 38  1  0  0  0  0
M  END
