 xtb: 6.7.1 (edcfbbe)
          04092505213D

 41 40  0     0  0            999 V2000
    2.4919   -3.1700    1.1194 C   0  0  0  0  0  0  0  0  0  0  0  0
    1.3857   -2.8754    0.1272 C   0  0  0  0  0  0  0  0  0  0  0  0
    1.6706   -1.7279   -0.7079 O   0  0  0  0  0  0  0  0  0  0  0  0
    1.7979   -0.2308   -0.1948 P   0  0  0  0  0  0  0  0  0  0  0  0
    1.7235    1.0131   -1.7081 S   0  0  0  0  0  0  0  0  0  0  0  0
    3.1917   -0.1087    0.5908 O   0  0  0  0  0  0  0  0  0  0  0  0
    4.4475    0.0278   -0.0974 C   0  0  0  0  0  0  0  0  0  0  0  0
    5.5032    0.3840    0.9295 C   0  0  0  0  0  0  0  0  0  0  0  0
    0.5760   -0.1112    1.5210 S   0  0  0  0  0  0  0  0  0  0  0  0
    0.2242    1.6506    1.5099 C   0  0  0  0  0  0  0  0  0  0  0  0
   -0.9362    2.2226    0.1954 S   0  0  0  0  0  0  0  0  0  0  0  0
   -2.0430    0.5146   -0.3405 P   0  0  0  0  0  0  0  0  0  0  0  0
   -3.5569    0.9520   -1.4990 S   0  0  0  0  0  0  0  0  0  0  0  0
   -2.4163   -0.2858    0.9830 O   0  0  0  0  0  0  0  0  0  0  0  0
   -3.5979    0.0033    1.7513 C   0  0  0  0  0  0  0  0  0  0  0  0
   -3.3741    1.1573    2.7081 C   0  0  0  0  0  0  0  0  0  0  0  0
   -0.9409   -0.4553   -0.9678 O   0  0  0  0  0  0  0  0  0  0  0  0
   -1.2810   -1.3529   -2.0462 C   0  0  0  0  0  0  0  0  0  0  0  0
   -2.1421   -2.5009   -1.5648 C   0  0  0  0  0  0  0  0  0  0  0  0
    2.2511   -4.0850    1.6516 H   0  0  0  0  0  0  0  0  0  0  0  0
    3.4395   -3.2985    0.6021 H   0  0  0  0  0  0  0  0  0  0  0  0
    2.5842   -2.3576    1.8368 H   0  0  0  0  0  0  0  0  0  0  0  0
    0.4400   -2.6957    0.6455 H   0  0  0  0  0  0  0  0  0  0  0  0
    1.2666   -3.6867   -0.5935 H   0  0  0  0  0  0  0  0  0  0  0  0
    4.6759   -0.9191   -0.5956 H   0  0  0  0  0  0  0  0  0  0  0  0
    4.3450    0.8066   -0.8606 H   0  0  0  0  0  0  0  0  0  0  0  0
    5.2535    1.3257    1.4094 H   0  0  0  0  0  0  0  0  0  0  0  0
    5.5619   -0.3922    1.6869 H   0  0  0  0  0  0  0  0  0  0  0  0
    6.4638    0.4782    0.4339 H   0  0  0  0  0  0  0  0  0  0  0  0
    1.1394    2.2171    1.3491 H   0  0  0  0  0  0  0  0  0  0  0  0
   -0.2165    1.8835    2.4763 H   0  0  0  0  0  0  0  0  0  0  0  0
   -4.4184    0.2207    1.0591 H   0  0  0  0  0  0  0  0  0  0  0  0
   -3.7993   -0.9258    2.2863 H   0  0  0  0  0  0  0  0  0  0  0  0
   -4.2663    1.2984    3.3097 H   0  0  0  0  0  0  0  0  0  0  0  0
   -2.5324    0.9423    3.3610 H   0  0  0  0  0  0  0  0  0  0  0  0
   -3.1760    2.0731    2.1532 H   0  0  0  0  0  0  0  0  0  0  0  0
   -1.7965   -0.7794   -2.8231 H   0  0  0  0  0  0  0  0  0  0  0  0
   -0.3128   -1.6869   -2.4235 H   0  0  0  0  0  0  0  0  0  0  0  0
   -2.3011   -3.1939   -2.3850 H   0  0  0  0  0  0  0  0  0  0  0  0
   -1.6614   -3.0184   -0.7391 H   0  0  0  0  0  0  0  0  0  0  0  0
   -3.1063   -2.1189   -1.2317 H   0  0  0  0  0  0  0  0  0  0  0  0
  1  2  1  0  0  0  0
  2  3  1  0  0  0  0
  3  4  2  0  0  0  0
  4  5  2  0  0  0  0
  4  6  1  0  0  0  0
  6  7  1  0  0  0  0
  7  8  1  0  0  0  0
  4  9  1  0  0  0  0
  9 10  1  0  0  0  0
 10 11  1  0  0  0  0
 11 12  1  0  0  0  0
 12 13  2  0  0  0  0
 12 14  2  0  0  0  0
 14 15  1  0  0  0  0
 15 16  1  0  0  0  0
 12 17  1  0  0  0  0
 17 18  1  0  0  0  0
 18 19  1  0  0  0  0
  1 20  1  0  0  0  0
  1 21  1  0  0  0  0
  1 22  1  0  0  0  0
  2 23  1  0  0  0  0
  2 24  1  0  0  0  0
  7 25  1  0  0  0  0
  7 26  1  0  0  0  0
  8 27  1  0  0  0  0
  8 28  1  0  0  0  0
  8 29  1  0  0  0  0
 10 30  1  0  0  0  0
 10 31  1  0  0  0  0
 15 32  1  0  0  0  0
 15 33  1  0  0  0  0
 16 34  1  0  0  0  0
 16 35  1  0  0  0  0
 16 36  1  0  0  0  0
 18 37  1  0  0  0  0
 18 38  1  0  0  0  0
 19 39  1  0  0  0  0
 19 40  1  0  0  0  0
 19 41  1  0  0  0  0
M  END
