 xtb: 6.7.1 (edcfbbe)
          04092505203D

 41 40  0     0  0            999 V2000
    4.0943   -1.4952   -2.4648 C   0  0  0  0  0  0  0  0  0  0  0  0
    4.4703   -1.5545   -0.9984 C   0  0  0  0  0  0  0  0  0  0  0  0
    3.3133   -1.5736   -0.1448 O   0  0  0  0  0  0  0  0  0  0  0  0
    2.3370   -0.3265    0.0003 P   0  0  0  0  0  0  0  0  0  0  0  0
    3.2446    1.4158    0.0459 S   0  0  0  0  0  0  0  0  0  0  0  0
    1.5227   -0.7245    1.2993 O   0  0  0  0  0  0  0  0  0  0  0  0
    1.9802   -0.4103    2.6363 C   0  0  0  0  0  0  0  0  0  0  0  0
    0.8361    0.2088    3.4139 C   0  0  0  0  0  0  0  0  0  0  0  0
    0.8448   -0.6168   -1.4593 S   0  0  0  0  0  0  0  0  0  0  0  0
    0.1592    1.0627   -1.3754 C   0  0  0  0  0  0  0  0  0  0  0  0
   -0.7107    1.3993    0.1686 S   0  0  0  0  0  0  0  0  0  0  0  0
   -2.5648    0.4307   -0.2908 P   0  0  0  0  0  0  0  0  0  0  0  0
   -2.8839    0.0659   -2.1878 S   0  0  0  0  0  0  0  0  0  0  0  0
   -3.6845    1.3851    0.2611 O   0  0  0  0  0  0  0  0  0  0  0  0
   -3.6232    2.2117    1.4502 C   0  0  0  0  0  0  0  0  0  0  0  0
   -3.2553    1.4384    2.6976 C   0  0  0  0  0  0  0  0  0  0  0  0
   -2.6731   -0.7994    0.7146 O   0  0  0  0  0  0  0  0  0  0  0  0
   -1.7750   -1.9162    0.8034 C   0  0  0  0  0  0  0  0  0  0  0  0
   -1.9036   -2.8639   -0.3725 C   0  0  0  0  0  0  0  0  0  0  0  0
    4.9887   -1.5995   -3.0708 H   0  0  0  0  0  0  0  0  0  0  0  0
    3.3965   -2.2922   -2.7094 H   0  0  0  0  0  0  0  0  0  0  0  0
    3.6256   -0.5381   -2.6910 H   0  0  0  0  0  0  0  0  0  0  0  0
    5.0872   -0.6927   -0.7242 H   0  0  0  0  0  0  0  0  0  0  0  0
    4.9930   -2.4798   -0.7525 H   0  0  0  0  0  0  0  0  0  0  0  0
    2.3113   -1.3497    3.0826 H   0  0  0  0  0  0  0  0  0  0  0  0
    2.8267    0.2806    2.5683 H   0  0  0  0  0  0  0  0  0  0  0  0
   -0.0090   -0.4734    3.4431 H   0  0  0  0  0  0  0  0  0  0  0  0
    1.1658    0.4147    4.4270 H   0  0  0  0  0  0  0  0  0  0  0  0
    0.5268    1.1385    2.9419 H   0  0  0  0  0  0  0  0  0  0  0  0
   -0.5362    1.1529   -2.2108 H   0  0  0  0  0  0  0  0  0  0  0  0
    0.9706    1.7869   -1.4426 H   0  0  0  0  0  0  0  0  0  0  0  0
   -2.9049    3.0142    1.2641 H   0  0  0  0  0  0  0  0  0  0  0  0
   -4.6311    2.6246    1.5143 H   0  0  0  0  0  0  0  0  0  0  0  0
   -3.9254    0.5929    2.8281 H   0  0  0  0  0  0  0  0  0  0  0  0
   -2.2322    1.0750    2.6267 H   0  0  0  0  0  0  0  0  0  0  0  0
   -3.3347    2.0974    3.5568 H   0  0  0  0  0  0  0  0  0  0  0  0
   -0.7492   -1.5461    0.8936 H   0  0  0  0  0  0  0  0  0  0  0  0
   -2.0681   -2.4064    1.7343 H   0  0  0  0  0  0  0  0  0  0  0  0
   -1.5786   -2.3812   -1.2923 H   0  0  0  0  0  0  0  0  0  0  0  0
   -1.2820   -3.7361   -0.1970 H   0  0  0  0  0  0  0  0  0  0  0  0
   -2.9382   -3.1752   -0.4921 H   0  0  0  0  0  0  0  0  0  0  0  0
  1  2  1  0  0  0  0
  2  3  1  0  0  0  0
  3  4  2  0  0  0  0
  4  5  2  0  0  0  0
  4  6  2  0  0  0  0
  6  7  1  0  0  0  0
  7  8  1  0  0  0  0
  4  9  1  0  0  0  0
  9 10  1  0  0  0  0
 10 11  1  0  0  0  0
 11 12  1  0  0  0  0
 12 13  2  0  0  0  0
 12 14  2  0  0  0  0
 14 15  1  0  0  0  0
 15 16  1  0  0  0  0
 12 17  2  0  0  0  0
 17 18  1  0  0  0  0
 18 19  1  0  0  0  0
  1 20  1  0  0  0  0
  1 21  1  0  0  0  0
  1 22  1  0  0  0  0
  2 23  1  0  0  0  0
  2 24  1  0  0  0  0
  7 25  1  0  0  0  0
  7 26  1  0  0  0  0
  8 27  1  0  0  0  0
  8 28  1  0  0  0  0
  8 29  1  0  0  0  0
 10 30  1  0  0  0  0
 10 31  1  0  0  0  0
 15 32  1  0  0  0  0
 15 33  1  0  0  0  0
 16 34  1  0  0  0  0
 16 35  1  0  0  0  0
 16 36  1  0  0  0  0
 18 37  1  0  0  0  0
 18 38  1  0  0  0  0
 19 39  1  0  0  0  0
 19 40  1  0  0  0  0
 19 41  1  0  0  0  0
M  END
