  28
 
 C         -4.9779529438        0.4283933407       -0.0191827895
 C         -3.7388996935       -0.4585997585        0.0075825910
 C         -2.4534548112        0.3650051585        0.0011132966
 C         -1.2105070487       -0.5186560104        0.0263908006
 N         -0.0022628217        0.2807175980       -0.0703858493
 C          1.2091256195       -0.5145908216        0.0236463935
 C          2.4500379242        0.3717186320       -0.0065598941
 C          3.7359282952       -0.4513498651        0.0020352147
 C          4.9759029279        0.4341755210       -0.0281327213
 H         -5.8807507193       -0.1770821028       -0.0137358579
 H         -4.9968597420        1.0827071617        0.8493250603
 H         -4.9823219444        1.0465105673       -0.9136824051
 H         -3.7598668703       -1.0868620291        0.9012823302
 H         -3.7458328566       -1.1201546569       -0.8611764451
 H         -2.4184582277        0.9892980085       -0.8926249695
 H         -2.4422948859        1.0262932043        0.8709567703
 H         -1.2230111113       -1.1966392798       -0.8336237262
 H         -1.2208014458       -1.1456787673        0.9391448306
 H         -0.0025568137        0.9755841667        0.6719159196
 H          1.2237628037       -1.1401610467        0.9372372475
 H          1.2209451742       -1.1935890750       -0.8355166436
 H          2.4389115084        1.0365189788        0.8605578981
 H          2.4134134988        0.9922987800       -0.9027570695
 H          3.7421701671       -1.1157942867       -0.8645116722
 H          3.7568319346       -1.0766580961        0.8978134528
 H          5.8777010958       -0.1727909741       -0.0188039058
 H          4.9821284482        1.0476945442       -0.9257882968
 H          4.9951808301        1.0928095254        0.8370863448
          28
        -29.74609966
 C         -4.4479757595        1.1509892679       -0.1924172734
 C         -3.5897776403       -0.0180713776        0.2773016904
 C         -2.1512036313        0.0968800245       -0.2190272610
 C         -1.2914645702       -1.0845687039        0.2544378582
 N          0.0690990141       -1.1201831772       -0.2477910425
 C          0.9379665003       -0.0617378615        0.2376930867
 C          2.3708516481       -0.2985541870       -0.2338711619
 C          3.3381308391        0.7385661724        0.3310027383
 C          4.7641021401        0.5031243507       -0.1526819791
 H         -5.4663740649        1.0480012346        0.1735729970
 H         -4.0439274906        2.0918936172        0.1745351445
 H         -4.4752232008        1.1909279495       -1.2790845812
 H         -3.5898840843       -0.0544401804        1.3688508269
 H         -4.0206255536       -0.9541439741       -0.0848426770
 H         -2.1452538096        0.1266567982       -1.3123632681
 H         -1.7203165156        1.0328648359        0.1436066605
 H         -1.7697775701       -2.0182032278       -0.0570275031
 H         -1.2388984282       -1.0824376927        1.3471960777
 H          0.0562376919       -1.1058963626       -1.2634142916
 H          0.6160831175        0.9445008669       -0.0827975774
 H          0.9034222209       -0.0880918397        1.3314094845
 H          2.3986836331       -0.2643266809       -1.3254849156
 H          2.6780826415       -1.2984460298        0.0749470171
 H          3.3126431461        0.6970731529        1.4219523337
 H          3.0122719901        1.7372747534        0.0305161934
 H          5.4365998512        1.2491254994        0.2632805152
 H          5.1099629904       -0.4816415433        0.1521202348
 H          4.8127083555        0.5622233765       -1.2375485204
