 xtb: 6.7.1 (edcfbbe)
          04092505213D

 41 40  0     0  0            999 V2000
    1.1128   -2.8857    0.8687 C   0  0  0  0  0  0  0  0  0  0  0  0
    2.1191   -1.8749    1.3816 C   0  0  0  0  0  0  0  0  0  0  0  0
    1.7271   -0.5348    1.0224 O   0  0  0  0  0  0  0  0  0  0  0  0
    2.3633    0.2626   -0.2086 P   0  0  0  0  0  0  0  0  0  0  0  0
    3.0567   -0.8288   -1.6713 S   0  0  0  0  0  0  0  0  0  0  0  0
    3.5299    1.1696    0.3687 O   0  0  0  0  0  0  0  0  0  0  0  0
    3.3665    2.2428    1.3253 C   0  0  0  0  0  0  0  0  0  0  0  0
    3.3594    1.7289    2.7508 C   0  0  0  0  0  0  0  0  0  0  0  0
    0.8018    1.6371   -0.6002 S   0  0  0  0  0  0  0  0  0  0  0  0
    0.0641    0.7336   -1.9826 C   0  0  0  0  0  0  0  0  0  0  0  0
   -0.6147   -0.8761   -1.5030 S   0  0  0  0  0  0  0  0  0  0  0  0
   -2.1285   -0.1455   -0.2323 P   0  0  0  0  0  0  0  0  0  0  0  0
   -3.0200    1.5163   -0.7832 S   0  0  0  0  0  0  0  0  0  0  0  0
   -1.4111   -0.1343    1.1732 O   0  0  0  0  0  0  0  0  0  0  0  0
   -1.8662    0.6741    2.2839 C   0  0  0  0  0  0  0  0  0  0  0  0
   -0.6598    1.2907    2.9611 C   0  0  0  0  0  0  0  0  0  0  0  0
   -3.1009   -1.3925   -0.0670 O   0  0  0  0  0  0  0  0  0  0  0  0
   -4.0773   -1.7389   -1.0697 C   0  0  0  0  0  0  0  0  0  0  0  0
   -5.1421   -2.5914   -0.4093 C   0  0  0  0  0  0  0  0  0  0  0  0
    0.1092   -2.6025    1.1778 H   0  0  0  0  0  0  0  0  0  0  0  0
    1.1431   -2.9282   -0.2181 H   0  0  0  0  0  0  0  0  0  0  0  0
    1.3522   -3.8653    1.2696 H   0  0  0  0  0  0  0  0  0  0  0  0
    3.1153   -2.0807    0.9788 H   0  0  0  0  0  0  0  0  0  0  0  0
    2.1573   -1.8720    2.4727 H   0  0  0  0  0  0  0  0  0  0  0  0
    4.2257    2.8894    1.1386 H   0  0  0  0  0  0  0  0  0  0  0  0
    2.4446    2.7830    1.0919 H   0  0  0  0  0  0  0  0  0  0  0  0
    4.2582    1.1484    2.9418 H   0  0  0  0  0  0  0  0  0  0  0  0
    3.3286    2.5745    3.4307 H   0  0  0  0  0  0  0  0  0  0  0  0
    2.4884    1.1033    2.9244 H   0  0  0  0  0  0  0  0  0  0  0  0
    0.8226    0.5339   -2.7386 H   0  0  0  0  0  0  0  0  0  0  0  0
   -0.7332    1.3675   -2.3704 H   0  0  0  0  0  0  0  0  0  0  0  0
   -2.5461    1.4448    1.9053 H   0  0  0  0  0  0  0  0  0  0  0  0
   -2.4100    0.0095    2.9584 H   0  0  0  0  0  0  0  0  0  0  0  0
   -0.1493    1.9617    2.2746 H   0  0  0  0  0  0  0  0  0  0  0  0
   -0.9861    1.8489    3.8325 H   0  0  0  0  0  0  0  0  0  0  0  0
    0.0278    0.5079    3.2685 H   0  0  0  0  0  0  0  0  0  0  0  0
   -4.4997   -0.8149   -1.4789 H   0  0  0  0  0  0  0  0  0  0  0  0
   -3.5662   -2.2839   -1.8676 H   0  0  0  0  0  0  0  0  0  0  0  0
   -5.8743   -2.8860   -1.1538 H   0  0  0  0  0  0  0  0  0  0  0  0
   -4.6896   -3.4792    0.0227 H   0  0  0  0  0  0  0  0  0  0  0  0
   -5.6367   -2.0288    0.3775 H   0  0  0  0  0  0  0  0  0  0  0  0
  1  2  1  0  0  0  0
  2  3  1  0  0  0  0
  3  4  1  0  0  0  0
  4  5  2  0  0  0  0
  4  6  2  0  0  0  0
  6  7  1  0  0  0  0
  7  8  1  0  0  0  0
  4  9  1  0  0  0  0
  9 10  1  0  0  0  0
 10 11  1  0  0  0  0
 11 12  1  0  0  0  0
 12 13  2  0  0  0  0
 12 14  2  0  0  0  0
 14 15  1  0  0  0  0
 15 16  1  0  0  0  0
 12 17  2  0  0  0  0
 17 18  1  0  0  0  0
 18 19  1  0  0  0  0
  1 20  1  0  0  0  0
  1 21  1  0  0  0  0
  1 22  1  0  0  0  0
  2 23  1  0  0  0  0
  2 24  1  0  0  0  0
  7 25  1  0  0  0  0
  7 26  1  0  0  0  0
  8 27  1  0  0  0  0
  8 28  1  0  0  0  0
  8 29  1  0  0  0  0
 10 30  1  0  0  0  0
 10 31  1  0  0  0  0
 15 32  1  0  0  0  0
 15 33  1  0  0  0  0
 16 34  1  0  0  0  0
 16 35  1  0  0  0  0
 16 36  1  0  0  0  0
 18 37  1  0  0  0  0
 18 38  1  0  0  0  0
 19 39  1  0  0  0  0
 19 40  1  0  0  0  0
 19 41  1  0  0  0  0
M  END
