41
 xtb: 6.7.1 (edcfbbe)
C            1.34818711452257       -1.22005922655032       -2.85052894141809
C            1.70511572346493       -1.60635943818273       -1.43912644495065
O            2.27041988295290       -0.40876162327111       -0.79025627170820
P            2.35024004431403       -0.26698882011920        0.80287552481843
S            3.21285090244306        1.39495010826658        1.32453166865781
O            3.03845384475786       -1.66156993799026        1.21104531332323
C            3.44281839179112       -1.92821226226689        2.60350417949308
C            4.94307505946706       -2.05388835164215        2.66319259144322
S            0.40654832208161       -0.57028927699571        1.60512748819816
C           -0.27409322557084        1.13176724474547        1.52715598949478
S           -0.46582663294693        1.90681054918309       -0.13413328999970
P           -2.13154410761131        0.90527659656792       -0.94777440329221
S           -2.75225342124906        1.86229681673611       -2.52648990251719
O           -3.17556738412297        0.69885642379222        0.26119219125306
C           -3.94943694490083        1.83491867186202        0.78617347238811
C           -5.41668357432528        1.55047075331374        0.59156571676892
O           -1.62691713704667       -0.60254885393678       -1.14384170633790
C           -2.27608660990172       -1.52224100718707       -2.09293336186903
C           -3.63987303090977       -1.95651581878361       -1.61571786758889
H            0.58751230126853       -0.43403129686678       -2.86257433297616
H            2.23100582536873       -0.87130304233202       -3.39394640452606
H            0.95027930371225       -2.09790019637350       -3.36887501862245
H            2.46848360153164       -2.38847636968968       -1.40713848995428
H            0.82636445976001       -1.93327463550032       -0.87341073512503
H            3.07832866571574       -1.12409269328626        3.25045498267340
H            2.93954649966830       -2.85829390721945        2.87888782402266
H            5.23769063372597       -2.30738052130563        3.68662405007565
H            5.29547079461137       -2.84602520741577        1.99649693752472
H            5.42516099699053       -1.11197306621404        2.38643421001576
H            0.38485101539042        1.80819613450053        2.07931687204226
H           -1.24439637341410        1.08872510909684        2.02984598793755
H           -3.68162924902104        1.91187793522174        1.84331492200254
H           -3.64631111183169        2.75438945256398        0.27560479401768
H           -5.70087685935088        0.61591239211652        1.08375151980657
H           -6.00022484678099        2.36456970498715        1.03326332615671
H           -5.66343912490702        1.48384031713109       -0.47196803681165
H           -2.31751030813995       -1.03169548281779       -3.07026171804944
H           -1.58018957906488       -2.36213078986432       -2.14379692932980
H           -4.34862727848420       -1.12297683295485       -1.60015747722955
H           -4.02347170956885       -2.71562706691280       -2.30530671968579
H           -3.58336670446424       -2.39578852241138       -0.61567596158347
