7
 xtb: 6.7.1 (edcfbbe)
C            1.40342344405554       -0.00163485854733        0.00260361387005
N           -0.08996242223256       -0.00009068869838        0.00744088957887
O           -0.66669476847362       -1.08173685957360       -0.00529387981585
O           -0.66341560733835        1.08337444727569       -0.00534373865352
H            1.74549551124616       -0.91551226203919        0.48457803944278
H            1.74666030183780        0.89854173073021        0.50922842926947
H            1.70708420795295        0.01322762079325       -1.04753077074965
