 xtb: 6.7.1 (edcfbbe)
          04092505213D

 41 40  0     0  0            999 V2000
    2.1074   -0.7827   -2.4494 C   0  0  0  0  0  0  0  0  0  0  0  0
    3.3851   -0.7420   -1.6367 C   0  0  0  0  0  0  0  0  0  0  0  0
    3.1996   -1.3045   -0.3287 O   0  0  0  0  0  0  0  0  0  0  0  0
    2.5388   -0.4970    0.8759 P   0  0  0  0  0  0  0  0  0  0  0  0
    2.9862    1.4188    0.9039 S   0  0  0  0  0  0  0  0  0  0  0  0
    2.9639   -1.3896    2.1127 O   0  0  0  0  0  0  0  0  0  0  0  0
    4.2862   -1.9354    2.3091 C   0  0  0  0  0  0  0  0  0  0  0  0
    5.3416   -0.8563    2.4374 C   0  0  0  0  0  0  0  0  0  0  0  0
    0.4732   -0.9605    0.9503 S   0  0  0  0  0  0  0  0  0  0  0  0
   -0.2327    0.7005    0.7745 C   0  0  0  0  0  0  0  0  0  0  0  0
   -0.8137    1.0902   -0.9041 S   0  0  0  0  0  0  0  0  0  0  0  0
   -2.8300    0.4547   -0.6493 P   0  0  0  0  0  0  0  0  0  0  0  0
   -4.0111    0.6370   -2.1986 S   0  0  0  0  0  0  0  0  0  0  0  0
   -3.3033    1.1975    0.6771 O   0  0  0  0  0  0  0  0  0  0  0  0
   -3.9874    2.4616    0.6215 C   0  0  0  0  0  0  0  0  0  0  0  0
   -3.0715    3.5916    0.1931 C   0  0  0  0  0  0  0  0  0  0  0  0
   -2.7156   -0.9922   -0.0070 O   0  0  0  0  0  0  0  0  0  0  0  0
   -2.8196   -2.1789   -0.8144 C   0  0  0  0  0  0  0  0  0  0  0  0
   -1.6329   -2.3476   -1.7418 C   0  0  0  0  0  0  0  0  0  0  0  0
    1.7071   -1.7929   -2.4722 H   0  0  0  0  0  0  0  0  0  0  0  0
    1.3631   -0.1144   -2.0184 H   0  0  0  0  0  0  0  0  0  0  0  0
    2.3161   -0.4578   -3.4634 H   0  0  0  0  0  0  0  0  0  0  0  0
    3.7439    0.2872   -1.5284 H   0  0  0  0  0  0  0  0  0  0  0  0
    4.1641   -1.3605   -2.0851 H   0  0  0  0  0  0  0  0  0  0  0  0
    4.1878   -2.5100    3.2316 H   0  0  0  0  0  0  0  0  0  0  0  0
    4.5101   -2.6050    1.4759 H   0  0  0  0  0  0  0  0  0  0  0  0
    5.0797   -0.1638    3.2340 H   0  0  0  0  0  0  0  0  0  0  0  0
    6.3008   -1.3132    2.6596 H   0  0  0  0  0  0  0  0  0  0  0  0
    5.4222   -0.2957    1.5069 H   0  0  0  0  0  0  0  0  0  0  0  0
    0.5429    1.4328    1.0117 H   0  0  0  0  0  0  0  0  0  0  0  0
   -1.0732    0.7698    1.4599 H   0  0  0  0  0  0  0  0  0  0  0  0
   -4.8303    2.3698   -0.0709 H   0  0  0  0  0  0  0  0  0  0  0  0
   -4.3576    2.6050    1.6377 H   0  0  0  0  0  0  0  0  0  0  0  0
   -2.1988    3.6450    0.8394 H   0  0  0  0  0  0  0  0  0  0  0  0
   -2.7411    3.4345   -0.8334 H   0  0  0  0  0  0  0  0  0  0  0  0
   -3.6136    4.5303    0.2471 H   0  0  0  0  0  0  0  0  0  0  0  0
   -2.8781   -2.9868   -0.0841 H   0  0  0  0  0  0  0  0  0  0  0  0
   -3.7497   -2.1252   -1.3892 H   0  0  0  0  0  0  0  0  0  0  0  0
   -0.7096   -2.3681   -1.1685 H   0  0  0  0  0  0  0  0  0  0  0  0
   -1.7380   -3.2773   -2.2915 H   0  0  0  0  0  0  0  0  0  0  0  0
   -1.5963   -1.5197   -2.4500 H   0  0  0  0  0  0  0  0  0  0  0  0
  1  2  1  0  0  0  0
  2  3  1  0  0  0  0
  3  4  2  0  0  0  0
  4  5  2  0  0  0  0
  4  6  2  0  0  0  0
  6  7  1  0  0  0  0
  7  8  1  0  0  0  0
  4  9  1  0  0  0  0
  9 10  1  0  0  0  0
 10 11  1  0  0  0  0
 11 12  1  0  0  0  0
 12 13  2  0  0  0  0
 12 14  1  0  0  0  0
 14 15  1  0  0  0  0
 15 16  1  0  0  0  0
 12 17  2  0  0  0  0
 17 18  1  0  0  0  0
 18 19  1  0  0  0  0
  1 20  1  0  0  0  0
  1 21  1  0  0  0  0
  1 22  1  0  0  0  0
  2 23  1  0  0  0  0
  2 24  1  0  0  0  0
  7 25  1  0  0  0  0
  7 26  1  0  0  0  0
  8 27  1  0  0  0  0
  8 28  1  0  0  0  0
  8 29  1  0  0  0  0
 10 30  1  0  0  0  0
 10 31  1  0  0  0  0
 15 32  1  0  0  0  0
 15 33  1  0  0  0  0
 16 34  1  0  0  0  0
 16 35  1  0  0  0  0
 16 36  1  0  0  0  0
 18 37  1  0  0  0  0
 18 38  1  0  0  0  0
 19 39  1  0  0  0  0
 19 40  1  0  0  0  0
 19 41  1  0  0  0  0
M  END
