41
 xtb: 6.7.1 (edcfbbe)
C            1.59317231635476        1.73928806144682        3.09447138810136
C            2.20059155474033        1.42395302294716        1.75325770966615
O            2.22208124555242       -0.04436056526292        1.62199222732371
P            2.49743156268664       -0.76523321945102        0.21794208101742
S            2.56943993843136       -2.69669071360962        0.43718303507830
O            3.80937627804315        0.00549674146357       -0.29674986732271
C            4.53708978269819       -0.45469059162366       -1.49450049802686
C            5.88913489899284       -0.97415783032446       -1.08031150390688
S            1.07819521332489       -0.05378498569877       -1.19835180042588
C           -0.36965166837062       -1.09503373119702       -0.76200929226400
S           -1.38471624673845       -0.48477175718893        0.63866173608813
P           -2.88133370807794        0.69099299982571       -0.33671500229042
S           -2.55307896210946        1.05313423754983       -2.21974975831463
O           -3.09401216412512        1.93530019896904        0.65242886652423
C           -2.47325146990607        3.24568702924315        0.40798181447879
C           -0.99524657916252        3.23994481319076        0.70618325645165
O           -4.25796396449894       -0.05488106965629        0.04257224629644
C           -4.55103787652495       -1.36377623604687       -0.55328708201577
C           -5.67166649152569       -1.97692477909302        0.24534981844836
H            0.57094559631237        1.35641983551660        3.16127555053951
H            2.18986768734919        1.30923511467133        3.90395489804879
H            1.56646727408600        2.82546012791460        3.22499900589373
H            3.23130970067976        1.78024787815623        1.67557392531364
H            1.60835468531975        1.83918447827813        0.93141822102853
H            3.94779115992847       -1.22148234408674       -2.00693770686855
H            4.61204969059525        0.42347386040813       -2.13999286098057
H            6.44775925312431       -1.26343924210710       -1.97629050296606
H            6.45817978388939       -0.20392629979341       -0.55227666973060
H            5.78891347345797       -1.85131820925151       -0.43500129285744
H           -0.01845564773258       -2.09557596287954       -0.48932291835111
H           -0.98702163210765       -1.16153854355468       -1.66084989875118
H           -2.68233443065388        3.53494518252369       -0.62618020554776
H           -3.01849643617494        3.91007037866017        1.08088909555840
H           -0.61817670019553        4.26403589208223        0.61588739736166
H           -0.80206168505283        2.88817839295594        1.72327639799767
H           -0.44652070106170        2.61095440892655       -0.00090640498924
H           -4.83157916676433       -1.20150056851217       -1.59834768619267
H           -3.64709026808513       -1.98320538624693       -0.51495035700649
H           -5.92602179496697       -2.94853638966017       -0.18877172984168
H           -5.37093632220327       -2.13013333501279        1.28563927216380
H           -6.56247634005654       -1.34298990918151        0.21949890691354
