41
 xtb: 6.7.1 (edcfbbe)
C            1.78419707950455       -1.01628147578670       -3.46584168267096
C            1.82663944998767       -0.14872411080632       -2.23531232969296
O            2.81488075594909       -0.73259779586785       -1.31686562486862
P            2.78494527251123       -0.29127988831753        0.23287340858524
S            2.98974453554821        1.60153182816811        0.63577160556242
O            3.95990086470665       -1.28162036322220        0.70211117787828
C            4.72472822822747       -1.04475524246048        1.93501301123834
C            3.92979358447166       -1.35733235812459        3.17851957933946
S            0.98735841806865       -1.18694212985353        0.94592278451264
C            0.09743103011566        0.23056234929289        1.73139466949046
S           -1.70387399775044       -0.07359719749810        1.76703430431018
P           -2.24067058572551        0.45795543068914       -0.21888572842311
S           -1.39399582333198        2.05527559771319       -0.94120739711630
O           -3.84539194074260        0.46232061409634       -0.08496999714689
C           -4.63407415946819        1.69582433657696        0.05364834603946
C           -4.56923951463115        2.25615625504808        1.45209950256237
O           -1.98281539022902       -0.91812693838915       -1.00574625309454
C           -1.94840506979510       -0.96204438912567       -2.47881380964341
C           -3.33051314473377       -0.85685194992440       -3.07556611009973
H            1.07300890022169       -0.58643427451283       -4.17789160146363
H            2.76622395342932       -1.06342481059638       -3.94590882762160
H            1.45692005686437       -2.03050467003290       -3.21825601041224
H            0.85296953678719       -0.11846101511663       -1.73275046712375
H            2.14453737750503        0.87401681353625       -2.46115680652309
H            5.58186021627158       -1.71249398798744        1.82962003957036
H            5.07706388096548       -0.00903324549811        1.92454135787174
H            4.59536940732139       -1.26298345891781        4.04282305810103
H            3.09712289811075       -0.66091705692320        3.31514018975668
H            3.54039362767044       -2.37878399685574        3.15249303875646
H            0.31125950315896        1.15378777458853        1.18546153075069
H            0.40824119724885        0.33176882115243        2.77425798388537
H           -4.28142138735947        2.41284466714895       -0.69344194184692
H           -5.64594393251081        1.37870088661811       -0.20623626583840
H           -3.56375187816334        2.60852568472940        1.69904245976823
H           -5.25313159286635        3.10877012773252        1.51654854056744
H           -4.87890569759979        1.50998590130992        2.18949140404993
H           -1.28865680157870       -0.16322261863807       -2.83134443702595
H           -1.48601724182748       -1.92781566052106       -2.69251648457491
H           -3.99558883820665       -1.62077550747013       -2.66286403686101
H           -3.77063886115665        0.13034552699821       -2.90512726908032
H           -3.25387469807477       -1.01285343928751       -4.15667690994391
