 xtb: 6.7.1 (edcfbbe)
          04092505203D

 41 40  0     0  0            999 V2000
    2.8259    2.1209   -1.8054 C   0  0  0  0  0  0  0  0  0  0  0  0
    3.2956    1.5263   -0.4942 C   0  0  0  0  0  0  0  0  0  0  0  0
    2.1642    1.3946    0.4065 O   0  0  0  0  0  0  0  0  0  0  0  0
    1.8040    0.0110    1.0764 P   0  0  0  0  0  0  0  0  0  0  0  0
    0.2748    0.0971    2.2908 S   0  0  0  0  0  0  0  0  0  0  0  0
    3.1937   -0.3234    1.7898 O   0  0  0  0  0  0  0  0  0  0  0  0
    3.3183   -1.2839    2.8510 C   0  0  0  0  0  0  0  0  0  0  0  0
    2.9823   -2.6929    2.4059 C   0  0  0  0  0  0  0  0  0  0  0  0
    1.7253   -1.3940   -0.5291 S   0  0  0  0  0  0  0  0  0  0  0  0
    0.0210   -1.9822   -0.3751 C   0  0  0  0  0  0  0  0  0  0  0  0
   -1.0482   -1.4835   -1.7671 S   0  0  0  0  0  0  0  0  0  0  0  0
   -1.9478    0.2393   -0.9861 P   0  0  0  0  0  0  0  0  0  0  0  0
   -3.3966    1.0063   -2.0577 S   0  0  0  0  0  0  0  0  0  0  0  0
   -0.6501    1.1331   -0.7465 O   0  0  0  0  0  0  0  0  0  0  0  0
   -0.7924    2.4941   -0.2758 C   0  0  0  0  0  0  0  0  0  0  0  0
   -0.8719    3.4688   -1.4327 C   0  0  0  0  0  0  0  0  0  0  0  0
   -2.3779   -0.0919    0.5150 O   0  0  0  0  0  0  0  0  0  0  0  0
   -3.6932   -0.5643    0.8447 C   0  0  0  0  0  0  0  0  0  0  0  0
   -3.8817   -2.0165    0.4542 C   0  0  0  0  0  0  0  0  0  0  0  0
    3.6704    2.2020   -2.4823 H   0  0  0  0  0  0  0  0  0  0  0  0
    2.0685    1.4834   -2.2568 H   0  0  0  0  0  0  0  0  0  0  0  0
    2.4035    3.1079   -1.6390 H   0  0  0  0  0  0  0  0  0  0  0  0
    4.0086    2.1795    0.0111 H   0  0  0  0  0  0  0  0  0  0  0  0
    3.7478    0.5429   -0.6464 H   0  0  0  0  0  0  0  0  0  0  0  0
    4.3619   -1.1967    3.1565 H   0  0  0  0  0  0  0  0  0  0  0  0
    2.6639   -0.9747    3.6719 H   0  0  0  0  0  0  0  0  0  0  0  0
    1.9189   -2.7683    2.1836 H   0  0  0  0  0  0  0  0  0  0  0  0
    3.5504   -2.9571    1.5176 H   0  0  0  0  0  0  0  0  0  0  0  0
    3.2220   -3.3856    3.2063 H   0  0  0  0  0  0  0  0  0  0  0  0
   -0.4008   -1.6054    0.5602 H   0  0  0  0  0  0  0  0  0  0  0  0
    0.0468   -3.0679   -0.4019 H   0  0  0  0  0  0  0  0  0  0  0  0
   -1.6794    2.5575    0.3605 H   0  0  0  0  0  0  0  0  0  0  0  0
    0.0968    2.6658    0.3341 H   0  0  0  0  0  0  0  0  0  0  0  0
   -1.7807    3.3028   -2.0069 H   0  0  0  0  0  0  0  0  0  0  0  0
   -0.8801    4.4813   -1.0415 H   0  0  0  0  0  0  0  0  0  0  0  0
   -0.0166    3.3414   -2.0902 H   0  0  0  0  0  0  0  0  0  0  0  0
   -3.7605   -0.4219    1.9243 H   0  0  0  0  0  0  0  0  0  0  0  0
   -4.4264    0.0707    0.3361 H   0  0  0  0  0  0  0  0  0  0  0  0
   -4.8640   -2.3473    0.7755 H   0  0  0  0  0  0  0  0  0  0  0  0
   -3.8094   -2.1224   -0.6279 H   0  0  0  0  0  0  0  0  0  0  0  0
   -3.1230   -2.6370    0.9241 H   0  0  0  0  0  0  0  0  0  0  0  0
  1  2  1  0  0  0  0
  2  3  1  0  0  0  0
  3  4  2  0  0  0  0
  4  5  2  0  0  0  0
  4  6  1  0  0  0  0
  6  7  1  0  0  0  0
  7  8  1  0  0  0  0
  4  9  1  0  0  0  0
  9 10  1  0  0  0  0
 10 11  1  0  0  0  0
 11 12  1  0  0  0  0
 12 13  2  0  0  0  0
 12 14  1  0  0  0  0
 14 15  1  0  0  0  0
 15 16  1  0  0  0  0
 12 17  2  0  0  0  0
 17 18  1  0  0  0  0
 18 19  1  0  0  0  0
  1 20  1  0  0  0  0
  1 21  1  0  0  0  0
  1 22  1  0  0  0  0
  2 23  1  0  0  0  0
  2 24  1  0  0  0  0
  7 25  1  0  0  0  0
  7 26  1  0  0  0  0
  8 27  1  0  0  0  0
  8 28  1  0  0  0  0
  8 29  1  0  0  0  0
 10 30  1  0  0  0  0
 10 31  1  0  0  0  0
 15 32  1  0  0  0  0
 15 33  1  0  0  0  0
 16 34  1  0  0  0  0
 16 35  1  0  0  0  0
 16 36  1  0  0  0  0
 18 37  1  0  0  0  0
 18 38  1  0  0  0  0
 19 39  1  0  0  0  0
 19 40  1  0  0  0  0
 19 41  1  0  0  0  0
M  END
