  22
 
 C          4.3786762942        1.3936015332       -0.0000862721
 C          3.1017839254        1.9329779930       -0.0001695383
 C          1.9957877889        1.1011205636       -0.0001185456
 C          2.1645703950       -0.2823510703        0.0000015705
 C          3.4345041863       -0.8303574660        0.0001016641
 C          4.5334905038        0.0182838915        0.0000633865
 Cl         6.1210378986       -0.6712502272        0.0001876578
 O          1.0891109204       -1.1480909179        0.0000356766
 C         -0.1418759787       -0.5682858698        0.0000290376
 C         -0.3120265574        0.8205337649       -0.0000563004
 C         -1.5961971951        1.3560955890       -0.0000249789
 C         -2.7133598990        0.5201295565        0.0000891840
 C         -2.5437895786       -0.8593868502        0.0001485186
 C         -1.2570896919       -1.3994176982        0.0001142674
 Cl        -1.0197351910       -3.0993171361        0.0001726411
 Cl        -3.9075289023       -1.8992376791        0.0002514893
 Cl        -4.2885260813        1.1979116966        0.0001558700
 Cl        -1.7785828474        3.0621618612       -0.0001198517
 O          0.7405848439        1.6797037805       -0.0001792688
 H          5.2406681872        2.0386949665       -0.0001287861
 H          2.9463570250        2.9985650042       -0.0002751817
 H          3.5444712753       -1.9014521885        0.0002124014
          22
        -58.14255695
 C          4.3760030085        1.3924163834        0.0023145723
 C          3.0992625212        1.9319100706        0.0031070758
 C          1.9932635598        1.1002867058        0.0015171502
 C          2.1616967531       -0.2832368832       -0.0001288764
 C          3.4315627162       -0.8313125767       -0.0011467270
 C          4.5305257569        0.0171657369        0.0002014928
 Cl         6.1182325250       -0.6727189235       -0.0015800596
 O          1.0862061970       -1.1486457349       -0.0006499273
 C         -0.1448118804       -0.5686500430       -0.0000943622
 C         -0.3146823198        0.8201592310        0.0004139518
 C         -1.5987254601        1.3558573169       -0.0004797770
 C         -2.7158475958        0.5200976972       -0.0005114969
 C         -2.5465350640       -0.8593947443        0.0001182838
 C         -1.2600496365       -1.3996028851       -0.0000644913
 Cl        -1.0230681629       -3.0996317995       -0.0000030830
 Cl        -3.9103841890       -1.8989407837        0.0013910937
 Cl        -4.2909952399        1.1981289833       -0.0011653007
 Cl        -1.7809806519        3.0620520720       -0.0010868713
 O          0.7381241575        1.6791204316        0.0017666881
 H          5.2379589364        2.0374481692        0.0038272263
 H          2.9443416140        2.9974637469        0.0046823648
 H          3.5415630728       -1.9023420169       -0.0027866087
