 xtb: 6.7.1 (edcfbbe)
          04092505213D

 41 40  0     0  0            999 V2000
    2.4656   -0.4499   -3.0347 C   0  0  0  0  0  0  0  0  0  0  0  0
    3.2727    0.2347   -1.9500 C   0  0  0  0  0  0  0  0  0  0  0  0
    2.4151    0.8306   -0.9466 O   0  0  0  0  0  0  0  0  0  0  0  0
    1.9481    0.0984    0.3788 P   0  0  0  0  0  0  0  0  0  0  0  0
    0.9698    1.3302    1.5365 S   0  0  0  0  0  0  0  0  0  0  0  0
    3.2917   -0.4932    1.0307 O   0  0  0  0  0  0  0  0  0  0  0  0
    4.2307    0.3671    1.7090 C   0  0  0  0  0  0  0  0  0  0  0  0
    4.0572    0.2585    3.2112 C   0  0  0  0  0  0  0  0  0  0  0  0
    1.0936   -1.7694   -0.0917 S   0  0  0  0  0  0  0  0  0  0  0  0
   -0.2477   -1.7982    1.1405 C   0  0  0  0  0  0  0  0  0  0  0  0
   -1.9012   -1.8857    0.3973 S   0  0  0  0  0  0  0  0  0  0  0  0
   -2.0913    0.0553   -0.3840 P   0  0  0  0  0  0  0  0  0  0  0  0
   -0.7462    0.7933   -1.6183 S   0  0  0  0  0  0  0  0  0  0  0  0
   -2.3173    0.8452    0.9682 O   0  0  0  0  0  0  0  0  0  0  0  0
   -2.4389    2.2840    0.9989 C   0  0  0  0  0  0  0  0  0  0  0  0
   -2.3446    2.7238    2.4442 C   0  0  0  0  0  0  0  0  0  0  0  0
   -3.5531    0.0592   -1.0096 O   0  0  0  0  0  0  0  0  0  0  0  0
   -3.8030   -0.2783   -2.3858 C   0  0  0  0  0  0  0  0  0  0  0  0
   -3.4938   -1.7325   -2.6752 C   0  0  0  0  0  0  0  0  0  0  0  0
    1.6865    0.2199   -3.3911 H   0  0  0  0  0  0  0  0  0  0  0  0
    3.1246   -0.7089   -3.8571 H   0  0  0  0  0  0  0  0  0  0  0  0
    1.9953   -1.3541   -2.6552 H   0  0  0  0  0  0  0  0  0  0  0  0
    3.8281    1.0848   -2.3505 H   0  0  0  0  0  0  0  0  0  0  0  0
    3.9572   -0.4652   -1.4628 H   0  0  0  0  0  0  0  0  0  0  0  0
    5.2156    0.0138    1.3971 H   0  0  0  0  0  0  0  0  0  0  0  0
    4.0877    1.3990    1.3712 H   0  0  0  0  0  0  0  0  0  0  0  0
    4.1467   -0.7792    3.5194 H   0  0  0  0  0  0  0  0  0  0  0  0
    4.8219    0.8502    3.7041 H   0  0  0  0  0  0  0  0  0  0  0  0
    3.0771    0.6301    3.5023 H   0  0  0  0  0  0  0  0  0  0  0  0
   -0.1741   -0.9051    1.7659 H   0  0  0  0  0  0  0  0  0  0  0  0
   -0.1439   -2.7071    1.7268 H   0  0  0  0  0  0  0  0  0  0  0  0
   -1.6306    2.7147    0.3979 H   0  0  0  0  0  0  0  0  0  0  0  0
   -3.4006    2.5516    0.5542 H   0  0  0  0  0  0  0  0  0  0  0  0
   -2.4848    3.7982    2.4992 H   0  0  0  0  0  0  0  0  0  0  0  0
   -3.1083    2.2248    3.0331 H   0  0  0  0  0  0  0  0  0  0  0  0
   -1.3647    2.4694    2.8411 H   0  0  0  0  0  0  0  0  0  0  0  0
   -4.8612   -0.0522   -2.5221 H   0  0  0  0  0  0  0  0  0  0  0  0
   -3.1946    0.3779   -3.0165 H   0  0  0  0  0  0  0  0  0  0  0  0
   -3.7952   -1.9702   -3.6902 H   0  0  0  0  0  0  0  0  0  0  0  0
   -2.4233   -1.9093   -2.5732 H   0  0  0  0  0  0  0  0  0  0  0  0
   -4.0223   -2.3775   -1.9777 H   0  0  0  0  0  0  0  0  0  0  0  0
  1  2  1  0  0  0  0
  2  3  1  0  0  0  0
  3  4  2  0  0  0  0
  4  5  2  0  0  0  0
  4  6  1  0  0  0  0
  6  7  1  0  0  0  0
  7  8  1  0  0  0  0
  4  9  1  0  0  0  0
  9 10  1  0  0  0  0
 10 11  1  0  0  0  0
 11 12  1  0  0  0  0
 12 13  2  0  0  0  0
 12 14  2  0  0  0  0
 14 15  1  0  0  0  0
 15 16  1  0  0  0  0
 12 17  2  0  0  0  0
 17 18  1  0  0  0  0
 18 19  1  0  0  0  0
  1 20  1  0  0  0  0
  1 21  1  0  0  0  0
  1 22  1  0  0  0  0
  2 23  1  0  0  0  0
  2 24  1  0  0  0  0
  7 25  1  0  0  0  0
  7 26  1  0  0  0  0
  8 27  1  0  0  0  0
  8 28  1  0  0  0  0
  8 29  1  0  0  0  0
 10 30  1  0  0  0  0
 10 31  1  0  0  0  0
 15 32  1  0  0  0  0
 15 33  1  0  0  0  0
 16 34  1  0  0  0  0
 16 35  1  0  0  0  0
 16 36  1  0  0  0  0
 18 37  1  0  0  0  0
 18 38  1  0  0  0  0
 19 39  1  0  0  0  0
 19 40  1  0  0  0  0
 19 41  1  0  0  0  0
M  END
