 xtb: 6.7.1 (edcfbbe)
          04092513593D

 41 40  0     0  0            999 V2000
    2.0848   -0.0854   -2.8449 C   0  0  0  0  0  0  0  0  0  0  0  0
    2.4927   -1.2149   -1.9199 C   0  0  0  0  0  0  0  0  0  0  0  0
    1.6203   -1.2483   -0.7657 O   0  0  0  0  0  0  0  0  0  0  0  0
    2.0908   -0.7984    0.6792 P   0  0  0  0  0  0  0  0  0  0  0  0
    3.3031    0.7429    0.7910 S   0  0  0  0  0  0  0  0  0  0  0  0
    2.6880   -2.1666    1.2324 O   0  0  0  0  0  0  0  0  0  0  0  0
    3.3671   -2.2632    2.5039 C   0  0  0  0  0  0  0  0  0  0  0  0
    4.8607   -2.4255    2.2954 C   0  0  0  0  0  0  0  0  0  0  0  0
    0.2325   -0.6444    1.6606 S   0  0  0  0  0  0  0  0  0  0  0  0
   -0.0427    1.1398    1.4597 C   0  0  0  0  0  0  0  0  0  0  0  0
   -0.1541    1.6969   -0.2714 S   0  0  0  0  0  0  0  0  0  0  0  0
   -2.1416    1.1761   -0.7631 P   0  0  0  0  0  0  0  0  0  0  0  0
   -2.5795    1.3857   -2.6600 S   0  0  0  0  0  0  0  0  0  0  0  0
   -2.9686    2.0556    0.2646 O   0  0  0  0  0  0  0  0  0  0  0  0
   -4.3689    2.3417    0.0354 C   0  0  0  0  0  0  0  0  0  0  0  0
   -5.2359    1.1075    0.1741 C   0  0  0  0  0  0  0  0  0  0  0  0
   -2.3628   -0.2860   -0.1734 O   0  0  0  0  0  0  0  0  0  0  0  0
   -2.0197   -1.4678   -0.9160 C   0  0  0  0  0  0  0  0  0  0  0  0
   -2.6724   -2.6446   -0.2211 C   0  0  0  0  0  0  0  0  0  0  0  0
    1.0341   -0.1749   -3.1112 H   0  0  0  0  0  0  0  0  0  0  0  0
    2.2358    0.8754   -2.3564 H   0  0  0  0  0  0  0  0  0  0  0  0
    2.6858   -0.1247   -3.7477 H   0  0  0  0  0  0  0  0  0  0  0  0
    3.5279   -1.0937   -1.5892 H   0  0  0  0  0  0  0  0  0  0  0  0
    2.3723   -2.1884   -2.3981 H   0  0  0  0  0  0  0  0  0  0  0  0
    3.1545   -1.3706    3.0982 H   0  0  0  0  0  0  0  0  0  0  0  0
    2.9366   -3.1392    2.9924 H   0  0  0  0  0  0  0  0  0  0  0  0
    5.2732   -1.5363    1.8235 H   0  0  0  0  0  0  0  0  0  0  0  0
    5.3406   -2.5690    3.2585 H   0  0  0  0  0  0  0  0  0  0  0  0
    5.0605   -3.2862    1.6635 H   0  0  0  0  0  0  0  0  0  0  0  0
    0.8067    1.6811    1.8750 H   0  0  0  0  0  0  0  0  0  0  0  0
   -0.9634    1.3762    1.9853 H   0  0  0  0  0  0  0  0  0  0  0  0
   -4.6092    3.0919    0.7897 H   0  0  0  0  0  0  0  0  0  0  0  0
   -4.4734    2.7734   -0.9651 H   0  0  0  0  0  0  0  0  0  0  0  0
   -5.0642    0.6289    1.1346 H   0  0  0  0  0  0  0  0  0  0  0  0
   -6.2804    1.3942    0.0950 H   0  0  0  0  0  0  0  0  0  0  0  0
   -5.0054    0.4000   -0.6209 H   0  0  0  0  0  0  0  0  0  0  0  0
   -2.3768   -1.3478   -1.9447 H   0  0  0  0  0  0  0  0  0  0  0  0
   -0.9303   -1.5708   -0.9298 H   0  0  0  0  0  0  0  0  0  0  0  0
   -3.7525   -2.5296   -0.2241 H   0  0  0  0  0  0  0  0  0  0  0  0
   -2.4063   -3.5582   -0.7417 H   0  0  0  0  0  0  0  0  0  0  0  0
   -2.3239   -2.6989    0.8067 H   0  0  0  0  0  0  0  0  0  0  0  0
  1  2  1  0  0  0  0
  2  3  1  0  0  0  0
  3  4  2  0  0  0  0
  4  5  2  0  0  0  0
  4  6  2  0  0  0  0
  6  7  1  0  0  0  0
  7  8  1  0  0  0  0
  4  9  1  0  0  0  0
  9 10  1  0  0  0  0
 10 11  1  0  0  0  0
 11 12  1  0  0  0  0
 12 13  2  0  0  0  0
 12 14  2  0  0  0  0
 14 15  1  0  0  0  0
 15 16  1  0  0  0  0
 12 17  2  0  0  0  0
 17 18  1  0  0  0  0
 18 19  1  0  0  0  0
  1 20  1  0  0  0  0
  1 21  1  0  0  0  0
  1 22  1  0  0  0  0
  2 23  1  0  0  0  0
  2 24  1  0  0  0  0
  7 25  1  0  0  0  0
  7 26  1  0  0  0  0
  8 27  1  0  0  0  0
  8 28  1  0  0  0  0
  8 29  1  0  0  0  0
 10 30  1  0  0  0  0
 10 31  1  0  0  0  0
 15 32  1  0  0  0  0
 15 33  1  0  0  0  0
 16 34  1  0  0  0  0
 16 35  1  0  0  0  0
 16 36  1  0  0  0  0
 18 37  1  0  0  0  0
 18 38  1  0  0  0  0
 19 39  1  0  0  0  0
 19 40  1  0  0  0  0
 19 41  1  0  0  0  0
M  END
