 xtb: 6.7.1 (edcfbbe)
          04032520513D

 18 18  0     0  0            999 V2000
    0.0224   -2.4440    0.0947 C   0  0  0  0  0  0  0  0  0  0  0  0
    1.2092   -1.7389   -0.0004 C   0  0  0  0  0  0  0  0  0  0  0  0
    1.1788   -0.3492   -0.0598 C   0  0  0  0  0  0  0  0  0  0  0  0
   -0.0225    0.3410   -0.0241 C   0  0  0  0  0  0  0  0  0  0  0  0
   -1.2030   -0.3858    0.0698 C   0  0  0  0  0  0  0  0  0  0  0  0
   -1.1895   -1.7726    0.1315 C   0  0  0  0  0  0  0  0  0  0  0  0
   -2.4946    0.3780    0.1227 C   0  0  0  0  0  0  0  0  0  0  0  0
   -2.5883    1.3052   -0.8506 F   0  0  0  0  0  0  0  0  0  0  0  0
   -3.5826   -0.3961    0.0080 F   0  0  0  0  0  0  0  0  0  0  0  0
   -2.6413    1.0556    1.2825 F   0  0  0  0  0  0  0  0  0  0  0  0
    2.4800    0.3934   -0.1569 C   0  0  0  0  0  0  0  0  0  0  0  0
    3.2192   -0.0015   -1.2133 F   0  0  0  0  0  0  0  0  0  0  0  0
    2.3391    1.7213   -0.2756 F   0  0  0  0  0  0  0  0  0  0  0  0
    3.2642    0.1960    0.9238 F   0  0  0  0  0  0  0  0  0  0  0  0
    0.0397   -3.5200    0.1409 H   0  0  0  0  0  0  0  0  0  0  0  0
    2.1564   -2.2542   -0.0299 H   0  0  0  0  0  0  0  0  0  0  0  0
   -0.0447    1.4187   -0.0720 H   0  0  0  0  0  0  0  0  0  0  0  0
   -2.1171   -2.3178    0.2043 H   0  0  0  0  0  0  0  0  0  0  0  0
  1  2  4  0  0  0  0
  2  3  4  0  0  0  0
  3  4  4  0  0  0  0
  4  5  4  0  0  0  0
  1  6  4  0  0  0  0
  5  6  4  0  0  0  0
  5  7  1  0  0  0  0
  7  8  1  0  0  0  0
  7  9  1  0  0  0  0
  7 10  1  0  0  0  0
  3 11  1  0  0  0  0
 11 12  1  0  0  0  0
 11 13  1  0  0  0  0
 11 14  1  0  0  0  0
  1 15  1  0  0  0  0
  2 16  1  0  0  0  0
  4 17  1  0  0  0  0
  6 18  1  0  0  0  0
M  END
