 xtb: 6.7.1 (edcfbbe)
          04032519393D

  8  7  0     0  0            999 V2000
   -0.6412   -0.9187    0.3959 C   0  0  0  0  0  0  0  0  0  0  0  0
    0.3993   -0.1380   -0.3765 C   0  0  0  0  0  0  0  0  0  0  0  0
    2.0135   -0.7985   -0.0070 Cl  0  0  0  0  0  0  0  0  0  0  0  0
    0.3661    1.5927    0.0672 Cl  0  0  0  0  0  0  0  0  0  0  0  0
   -2.2732   -0.3524   -0.0712 Cl  0  0  0  0  0  0  0  0  0  0  0  0
   -0.5791   -1.9770    0.1455 H   0  0  0  0  0  0  0  0  0  0  0  0
   -0.5358   -0.7692    1.4695 H   0  0  0  0  0  0  0  0  0  0  0  0
    0.2553   -0.1988   -1.4564 H   0  0  0  0  0  0  0  0  0  0  0  0
  1  2  1  0  0  0  0
  2  3  1  0  0  0  0
  2  4  1  0  0  0  0
  1  5  1  0  0  0  0
  1  6  1  0  0  0  0
  1  7  1  0  0  0  0
  2  8  1  0  0  0  0
M  END
