41
 xtb: 6.7.1 (edcfbbe)
C            4.98052595732813       -2.24797021145689       -2.22732720057667
C            4.39049994679802       -0.94236773667033       -1.76261140440397
O            3.32039725375874       -1.26479187609835       -0.80740284705923
P            2.38390599233529       -0.09946433449591       -0.20224547581836
S            3.26989239458782        1.54698872540131        0.34268134675689
O            1.57976733903040       -0.91245813979410        0.92190465943974
C            2.17094984691847       -1.18890146020132        2.24190320365226
C            1.03077074630231       -1.45052204156235        3.19173142881722
S            0.91293019839229        0.06611636880828       -1.71322000952206
C            0.16942481497611        1.69979079155042       -1.33007537696740
S           -0.68744303839819        1.89611864663996        0.28176442594308
P           -2.27882626609402        0.51251077638172        0.08736782469619
S           -3.04261802427804        0.30356878725480       -1.69282331375965
O           -3.28271440343538        0.98984344181290        1.25524572995558
C           -4.45973375125788        1.83411734484596        1.00430484515423
C           -4.09170106536969        3.28753428676967        0.84033047017899
O           -1.62145042870985       -0.78446895648050        0.76603443622554
C           -2.36516062375190       -2.05544343282216        0.83479194702784
C           -1.51934507432063       -3.13415722017157        0.20875695831546
H            5.38688233025471       -2.81447220288959       -1.38462671570367
H            4.23195088049980       -2.85720981079431       -2.74149591772561
H            5.79538093632262       -2.03767776881257       -2.92680906778455
H            3.95884789877333       -0.37506207899925       -2.59421576433254
H            5.12764048983003       -0.32037428029624       -1.24683122463180
H            2.82784905949811       -2.05745568264865        2.13220202691282
H            2.76274192285043       -0.32130396502697        2.55074932774971
H            1.44023453560512       -1.69059063302252        4.17799451729274
H            0.39298591783093       -0.56655811941176        3.28694612107510
H            0.42275623300399       -2.29616689128240        2.85575292766375
H           -0.53539570073532        1.89038758808822       -2.14453217158786
H            0.94828919203990        2.46793201119959       -1.33275197394550
H           -4.98132720485000        1.44140987164503        0.12655400368167
H           -5.07955750534543        1.67393813346114        1.88877527579505
H           -3.52210831511332        3.64870166278343        1.70162188790370
H           -3.50937301179000        3.45643024907197       -0.06977990843553
H           -5.01445231547426        3.87255646035131        0.76783095711963
H           -2.54769214755615       -2.23601790739263        1.89750301847439
H           -3.32650730705975       -1.94839946793644        0.32242885629656
H           -0.55081535750510       -3.21151042079236        0.71166042569090
H           -2.03601893082776       -4.09465946848076        0.30340351527194
H           -1.35324078287225       -2.93128970965696       -0.85329432201252
