 xtb: 6.7.1 (edcfbbe)
          04092505203D

 41 40  0     0  0            999 V2000
    4.2493    0.2499   -2.2367 C   0  0  0  0  0  0  0  0  0  0  0  0
    4.5751   -0.5113   -0.9684 C   0  0  0  0  0  0  0  0  0  0  0  0
    3.7228   -0.1551    0.1348 O   0  0  0  0  0  0  0  0  0  0  0  0
    2.1342   -0.1220    0.1062 P   0  0  0  0  0  0  0  0  0  0  0  0
    1.2903    1.4653   -0.7015 S   0  0  0  0  0  0  0  0  0  0  0  0
    1.7959   -0.2973    1.6465 O   0  0  0  0  0  0  0  0  0  0  0  0
    1.6562    0.8302    2.5311 C   0  0  0  0  0  0  0  0  0  0  0  0
    2.9802    1.5271    2.7618 C   0  0  0  0  0  0  0  0  0  0  0  0
    1.6300   -2.0164   -0.6561 S   0  0  0  0  0  0  0  0  0  0  0  0
   -0.0973   -1.7129   -1.1021 C   0  0  0  0  0  0  0  0  0  0  0  0
   -1.1516   -1.4015    0.3448 S   0  0  0  0  0  0  0  0  0  0  0  0
   -2.1241    0.4046   -0.2547 P   0  0  0  0  0  0  0  0  0  0  0  0
   -1.8873    0.9206   -2.1291 S   0  0  0  0  0  0  0  0  0  0  0  0
   -1.6691    1.5030    0.7867 O   0  0  0  0  0  0  0  0  0  0  0  0
   -2.2461    1.6894    2.1041 C   0  0  0  0  0  0  0  0  0  0  0  0
   -2.1656    0.4463    2.9655 C   0  0  0  0  0  0  0  0  0  0  0  0
   -3.6454    0.1870    0.1640 O   0  0  0  0  0  0  0  0  0  0  0  0
   -4.6120   -0.3984   -0.7247 C   0  0  0  0  0  0  0  0  0  0  0  0
   -4.3033   -1.8468   -1.0439 C   0  0  0  0  0  0  0  0  0  0  0  0
    4.9704   -0.0042   -3.0068 H   0  0  0  0  0  0  0  0  0  0  0  0
    3.2508   -0.0110   -2.5865 H   0  0  0  0  0  0  0  0  0  0  0  0
    4.2778    1.3221   -2.0558 H   0  0  0  0  0  0  0  0  0  0  0  0
    5.5766   -0.2719   -0.6064 H   0  0  0  0  0  0  0  0  0  0  0  0
    4.4864   -1.5891   -1.1306 H   0  0  0  0  0  0  0  0  0  0  0  0
    0.9270    1.5233    2.0969 H   0  0  0  0  0  0  0  0  0  0  0  0
    1.2638    0.3953    3.4517 H   0  0  0  0  0  0  0  0  0  0  0  0
    3.3326    1.9606    1.8264 H   0  0  0  0  0  0  0  0  0  0  0  0
    2.8505    2.3178    3.4942 H   0  0  0  0  0  0  0  0  0  0  0  0
    3.7201    0.8159    3.1186 H   0  0  0  0  0  0  0  0  0  0  0  0
   -0.4338   -2.6221   -1.5943 H   0  0  0  0  0  0  0  0  0  0  0  0
   -0.1694   -0.8508   -1.7725 H   0  0  0  0  0  0  0  0  0  0  0  0
   -1.6553    2.5085    2.5180 H   0  0  0  0  0  0  0  0  0  0  0  0
   -3.2825    2.0078    1.9767 H   0  0  0  0  0  0  0  0  0  0  0  0
   -1.1412    0.0892    3.0302 H   0  0  0  0  0  0  0  0  0  0  0  0
   -2.5258    0.6846    3.9614 H   0  0  0  0  0  0  0  0  0  0  0  0
   -2.7821   -0.3451    2.5439 H   0  0  0  0  0  0  0  0  0  0  0  0
   -5.5541   -0.2960   -0.1842 H   0  0  0  0  0  0  0  0  0  0  0  0
   -4.6406    0.1969   -1.6425 H   0  0  0  0  0  0  0  0  0  0  0  0
   -4.1557   -2.4164   -0.1300 H   0  0  0  0  0  0  0  0  0  0  0  0
   -5.1289   -2.2717   -1.6055 H   0  0  0  0  0  0  0  0  0  0  0  0
   -3.3998   -1.9054   -1.6493 H   0  0  0  0  0  0  0  0  0  0  0  0
  1  2  1  0  0  0  0
  2  3  1  0  0  0  0
  3  4  2  0  0  0  0
  4  5  2  0  0  0  0
  4  6  2  0  0  0  0
  6  7  1  0  0  0  0
  7  8  1  0  0  0  0
  4  9  1  0  0  0  0
  9 10  1  0  0  0  0
 10 11  1  0  0  0  0
 11 12  1  0  0  0  0
 12 13  2  0  0  0  0
 12 14  2  0  0  0  0
 14 15  1  0  0  0  0
 15 16  1  0  0  0  0
 12 17  2  0  0  0  0
 17 18  1  0  0  0  0
 18 19  1  0  0  0  0
  1 20  1  0  0  0  0
  1 21  1  0  0  0  0
  1 22  1  0  0  0  0
  2 23  1  0  0  0  0
  2 24  1  0  0  0  0
  7 25  1  0  0  0  0
  7 26  1  0  0  0  0
  8 27  1  0  0  0  0
  8 28  1  0  0  0  0
  8 29  1  0  0  0  0
 10 30  1  0  0  0  0
 10 31  1  0  0  0  0
 15 32  1  0  0  0  0
 15 33  1  0  0  0  0
 16 34  1  0  0  0  0
 16 35  1  0  0  0  0
 16 36  1  0  0  0  0
 18 37  1  0  0  0  0
 18 38  1  0  0  0  0
 19 39  1  0  0  0  0
 19 40  1  0  0  0  0
 19 41  1  0  0  0  0
M  END
