 xtb: 6.7.1 (edcfbbe)
          04092513593D

 41 40  0     0  0            999 V2000
    5.6856   -1.0163   -1.4124 C   0  0  0  0  0  0  0  0  0  0  0  0
    4.2617   -1.0388   -1.9347 C   0  0  0  0  0  0  0  0  0  0  0  0
    3.3499   -1.4669   -0.9007 O   0  0  0  0  0  0  0  0  0  0  0  0
    2.3903   -0.4540   -0.1360 P   0  0  0  0  0  0  0  0  0  0  0  0
    3.2558    1.1517    0.5887 S   0  0  0  0  0  0  0  0  0  0  0  0
    1.7064   -1.4272    0.9043 O   0  0  0  0  0  0  0  0  0  0  0  0
    2.1646   -1.5792    2.2714 C   0  0  0  0  0  0  0  0  0  0  0  0
    1.2524   -0.8222    3.2153 C   0  0  0  0  0  0  0  0  0  0  0  0
    0.8204   -0.1411   -1.5223 S   0  0  0  0  0  0  0  0  0  0  0  0
    0.1492    1.3838   -0.7965 C   0  0  0  0  0  0  0  0  0  0  0  0
   -0.8777    1.1015    0.6641 S   0  0  0  0  0  0  0  0  0  0  0  0
   -2.5902    0.3429   -0.3611 P   0  0  0  0  0  0  0  0  0  0  0  0
   -2.9787    1.1502   -2.1001 S   0  0  0  0  0  0  0  0  0  0  0  0
   -3.7664    0.4404    0.7042 O   0  0  0  0  0  0  0  0  0  0  0  0
   -4.6680    1.5585    0.7847 C   0  0  0  0  0  0  0  0  0  0  0  0
   -4.0175    2.7837    1.3947 C   0  0  0  0  0  0  0  0  0  0  0  0
   -2.3634   -1.2127   -0.5011 O   0  0  0  0  0  0  0  0  0  0  0  0
   -1.7424   -2.0965    0.4599 C   0  0  0  0  0  0  0  0  0  0  0  0
   -2.4682   -2.1249    1.7878 C   0  0  0  0  0  0  0  0  0  0  0  0
    5.7871   -0.2723   -0.6253 H   0  0  0  0  0  0  0  0  0  0  0  0
    5.9537   -1.9909   -1.0144 H   0  0  0  0  0  0  0  0  0  0  0  0
    6.3582   -0.7641   -2.2263 H   0  0  0  0  0  0  0  0  0  0  0  0
    4.1447   -1.7685   -2.7381 H   0  0  0  0  0  0  0  0  0  0  0  0
    3.9641   -0.0503   -2.2961 H   0  0  0  0  0  0  0  0  0  0  0  0
    2.1355   -2.6539    2.4568 H   0  0  0  0  0  0  0  0  0  0  0  0
    3.1937   -1.2194    2.3496 H   0  0  0  0  0  0  0  0  0  0  0  0
    0.2254   -1.1541    3.0944 H   0  0  0  0  0  0  0  0  0  0  0  0
    1.5702   -1.0009    4.2375 H   0  0  0  0  0  0  0  0  0  0  0  0
    1.3003    0.2449    3.0082 H   0  0  0  0  0  0  0  0  0  0  0  0
   -0.4537    1.8526   -1.5753 H   0  0  0  0  0  0  0  0  0  0  0  0
    0.9738    2.0262   -0.4856 H   0  0  0  0  0  0  0  0  0  0  0  0
   -5.0392    1.7796   -0.2211 H   0  0  0  0  0  0  0  0  0  0  0  0
   -5.4847    1.1885    1.4066 H   0  0  0  0  0  0  0  0  0  0  0  0
   -4.7733    3.5491    1.5420 H   0  0  0  0  0  0  0  0  0  0  0  0
   -3.5644    2.5378    2.3513 H   0  0  0  0  0  0  0  0  0  0  0  0
   -3.2488    3.1722    0.7291 H   0  0  0  0  0  0  0  0  0  0  0  0
   -1.7731   -3.0663   -0.0390 H   0  0  0  0  0  0  0  0  0  0  0  0
   -0.7005   -1.7895    0.5884 H   0  0  0  0  0  0  0  0  0  0  0  0
   -2.0054   -2.8719    2.4262 H   0  0  0  0  0  0  0  0  0  0  0  0
   -2.4101   -1.1519    2.2721 H   0  0  0  0  0  0  0  0  0  0  0  0
   -3.5144   -2.3793    1.6393 H   0  0  0  0  0  0  0  0  0  0  0  0
  1  2  1  0  0  0  0
  2  3  1  0  0  0  0
  3  4  2  0  0  0  0
  4  5  2  0  0  0  0
  4  6  2  0  0  0  0
  6  7  1  0  0  0  0
  7  8  1  0  0  0  0
  4  9  1  0  0  0  0
  9 10  1  0  0  0  0
 10 11  1  0  0  0  0
 11 12  1  0  0  0  0
 12 13  2  0  0  0  0
 12 14  2  0  0  0  0
 14 15  1  0  0  0  0
 15 16  1  0  0  0  0
 12 17  2  0  0  0  0
 17 18  1  0  0  0  0
 18 19  1  0  0  0  0
  1 20  1  0  0  0  0
  1 21  1  0  0  0  0
  1 22  1  0  0  0  0
  2 23  1  0  0  0  0
  2 24  1  0  0  0  0
  7 25  1  0  0  0  0
  7 26  1  0  0  0  0
  8 27  1  0  0  0  0
  8 28  1  0  0  0  0
  8 29  1  0  0  0  0
 10 30  1  0  0  0  0
 10 31  1  0  0  0  0
 15 32  1  0  0  0  0
 15 33  1  0  0  0  0
 16 34  1  0  0  0  0
 16 35  1  0  0  0  0
 16 36  1  0  0  0  0
 18 37  1  0  0  0  0
 18 38  1  0  0  0  0
 19 39  1  0  0  0  0
 19 40  1  0  0  0  0
 19 41  1  0  0  0  0
M  END
