  19
 
 C         -3.8772323280       -0.2660608560       -0.1549855553
 C         -2.9657474941       -1.3029675275       -0.0793403990
 C         -1.6044858210       -1.0444186930       -0.0111085822
 C         -1.1682568478        0.2693421359       -0.0252424048
 C         -2.0762071774        1.3183848262       -0.0954310449
 C         -3.4293615417        1.0460125702       -0.1581151370
 O          0.1784642593        0.6503772930        0.0390322270
 C          1.1419139522       -0.2786779205       -0.1888182686
 H          0.9352368780       -0.9486938181       -1.0392123626
 C          2.4692432871        0.4590693604       -0.4244258211
 F          3.3926829247       -0.3899469725       -0.9381778380
 F          2.9815314982        0.9257408795        0.7352166573
 F          1.2968910189       -1.1191359493        0.9122957760
 H         -4.9332175565       -0.4779800382       -0.2057185325
 H         -3.3059171754       -2.3264316664       -0.0673192299
 H         -0.9099555738       -1.8654150695        0.0726112738
 H         -1.7011877255        2.3283665059       -0.0959007387
 H         -4.1340684827        1.8604099854       -0.2121068642
 H          2.3409673614        1.3031282683       -1.1143371676
          19
        -38.95711564
 C         -3.8072084659       -0.0997169222       -0.3450887472
 C         -3.3299719707        1.0882795826        0.1868374151
 C         -1.9831109889        1.2369325631        0.4580451990
 C         -1.1126989841        0.1863274303        0.1984552468
 C         -1.5794925303       -1.0088407148       -0.3217526149
 C         -2.9329540066       -1.1415763355       -0.5948441301
 O          0.2299757807        0.4253856260        0.5200332120
 C          1.1889499488       -0.3700185209       -0.0135095217
 H          1.0204749260       -0.6510866079       -1.0642884151
 C          2.5387441784        0.3421985409        0.1553059425
 F          2.5295447388        1.4916580585       -0.5576600176
 F          3.5361465653       -0.4150716236       -0.3580291185
 F          1.2831599034       -1.5745037834        0.6876869384
 H         -4.8578899019       -0.2134708060       -0.5591349855
 H         -4.0062513343        1.9036854543        0.3881546341
 H         -1.5844800877        2.1498193759        0.8686260256
 H         -0.9147935861       -1.8400181626       -0.4981723007
 H         -3.2974800340       -2.0720354522       -1.0006331890
 H          2.7645590352        0.5724178836        1.2037895014
