 xtb: 6.7.1 (edcfbbe)
          04092505203D

 41 40  0     0  0            999 V2000
    4.3114   -1.8760   -1.0674 C   0  0  0  0  0  0  0  0  0  0  0  0
    4.6201   -0.5850   -0.3367 C   0  0  0  0  0  0  0  0  0  0  0  0
    3.5486   -0.1777    0.5302 O   0  0  0  0  0  0  0  0  0  0  0  0
    2.1248    0.2752   -0.0181 P   0  0  0  0  0  0  0  0  0  0  0  0
    2.1963    1.3229   -1.6780 S   0  0  0  0  0  0  0  0  0  0  0  0
    1.5280    0.9676    1.2771 O   0  0  0  0  0  0  0  0  0  0  0  0
    1.6915    2.3764    1.5408 C   0  0  0  0  0  0  0  0  0  0  0  0
    3.1438    2.7636    1.7177 C   0  0  0  0  0  0  0  0  0  0  0  0
    1.0056   -1.5159   -0.0296 S   0  0  0  0  0  0  0  0  0  0  0  0
    0.0929   -1.3150   -1.5991 C   0  0  0  0  0  0  0  0  0  0  0  0
   -1.6882   -1.5771   -1.4393 S   0  0  0  0  0  0  0  0  0  0  0  0
   -2.1308   -0.0345   -0.0782 P   0  0  0  0  0  0  0  0  0  0  0  0
   -1.2239    1.6823   -0.3079 S   0  0  0  0  0  0  0  0  0  0  0  0
   -1.8402   -0.8144    1.2893 O   0  0  0  0  0  0  0  0  0  0  0  0
   -1.5223   -0.1438    2.5209 C   0  0  0  0  0  0  0  0  0  0  0  0
   -2.7033    0.6428    3.0521 C   0  0  0  0  0  0  0  0  0  0  0  0
   -3.7006    0.1554   -0.1679 O   0  0  0  0  0  0  0  0  0  0  0  0
   -4.6464   -0.9212    0.0546 C   0  0  0  0  0  0  0  0  0  0  0  0
   -5.1477   -1.4782   -1.2624 C   0  0  0  0  0  0  0  0  0  0  0  0
    4.0086   -2.6469   -0.3633 H   0  0  0  0  0  0  0  0  0  0  0  0
    3.5049   -1.7126   -1.7813 H   0  0  0  0  0  0  0  0  0  0  0  0
    5.1953   -2.2036   -1.6052 H   0  0  0  0  0  0  0  0  0  0  0  0
    4.8099    0.2220   -1.0517 H   0  0  0  0  0  0  0  0  0  0  0  0
    5.4718   -0.6955    0.3356 H   0  0  0  0  0  0  0  0  0  0  0  0
    1.2294    2.9327    0.7182 H   0  0  0  0  0  0  0  0  0  0  0  0
    1.1160    2.5387    2.4535 H   0  0  0  0  0  0  0  0  0  0  0  0
    3.2012    3.8054    2.0173 H   0  0  0  0  0  0  0  0  0  0  0  0
    3.6082    2.1390    2.4765 H   0  0  0  0  0  0  0  0  0  0  0  0
    3.6795    2.6368    0.7776 H   0  0  0  0  0  0  0  0  0  0  0  0
    0.4332   -2.0768   -2.2962 H   0  0  0  0  0  0  0  0  0  0  0  0
    0.2877   -0.3112   -1.9874 H   0  0  0  0  0  0  0  0  0  0  0  0
   -1.2331   -0.9541    3.1919 H   0  0  0  0  0  0  0  0  0  0  0  0
   -0.6640    0.5120    2.3468 H   0  0  0  0  0  0  0  0  0  0  0  0
   -2.9755    1.4221    2.3400 H   0  0  0  0  0  0  0  0  0  0  0  0
   -3.5575   -0.0122    3.2039 H   0  0  0  0  0  0  0  0  0  0  0  0
   -2.4333    1.1058    3.9961 H   0  0  0  0  0  0  0  0  0  0  0  0
   -4.1689   -1.6968    0.6582 H   0  0  0  0  0  0  0  0  0  0  0  0
   -5.4563   -0.4553    0.6190 H   0  0  0  0  0  0  0  0  0  0  0  0
   -5.9247   -2.2095   -1.0635 H   0  0  0  0  0  0  0  0  0  0  0  0
   -5.5561   -0.6771   -1.8723 H   0  0  0  0  0  0  0  0  0  0  0  0
   -4.3378   -1.9573   -1.8081 H   0  0  0  0  0  0  0  0  0  0  0  0
  1  2  1  0  0  0  0
  2  3  1  0  0  0  0
  3  4  2  0  0  0  0
  4  5  2  0  0  0  0
  4  6  2  0  0  0  0
  6  7  1  0  0  0  0
  7  8  1  0  0  0  0
  4  9  1  0  0  0  0
  9 10  1  0  0  0  0
 10 11  1  0  0  0  0
 11 12  1  0  0  0  0
 12 13  2  0  0  0  0
 12 14  1  0  0  0  0
 14 15  1  0  0  0  0
 15 16  1  0  0  0  0
 12 17  2  0  0  0  0
 17 18  1  0  0  0  0
 18 19  1  0  0  0  0
  1 20  1  0  0  0  0
  1 21  1  0  0  0  0
  1 22  1  0  0  0  0
  2 23  1  0  0  0  0
  2 24  1  0  0  0  0
  7 25  1  0  0  0  0
  7 26  1  0  0  0  0
  8 27  1  0  0  0  0
  8 28  1  0  0  0  0
  8 29  1  0  0  0  0
 10 30  1  0  0  0  0
 10 31  1  0  0  0  0
 15 32  1  0  0  0  0
 15 33  1  0  0  0  0
 16 34  1  0  0  0  0
 16 35  1  0  0  0  0
 16 36  1  0  0  0  0
 18 37  1  0  0  0  0
 18 38  1  0  0  0  0
 19 39  1  0  0  0  0
 19 40  1  0  0  0  0
 19 41  1  0  0  0  0
M  END
