 xtb: 6.7.1 (edcfbbe)
          04092505203D

 41 40  0     0  0            999 V2000
    4.2557   -0.4151   -2.4795 C   0  0  0  0  0  0  0  0  0  0  0  0
    2.8662   -1.0120   -2.4110 C   0  0  0  0  0  0  0  0  0  0  0  0
    2.4490   -1.2315   -1.0465 O   0  0  0  0  0  0  0  0  0  0  0  0
    2.0832   -0.0389   -0.0736 P   0  0  0  0  0  0  0  0  0  0  0  0
    1.3602    1.5688   -0.9442 S   0  0  0  0  0  0  0  0  0  0  0  0
    3.4551    0.2427    0.6838 O   0  0  0  0  0  0  0  0  0  0  0  0
    3.6725    1.4346    1.4533 C   0  0  0  0  0  0  0  0  0  0  0  0
    2.8023    1.4725    2.6936 C   0  0  0  0  0  0  0  0  0  0  0  0
    1.0188   -1.1531    1.3742 S   0  0  0  0  0  0  0  0  0  0  0  0
   -0.1696   -2.0346    0.3081 C   0  0  0  0  0  0  0  0  0  0  0  0
   -0.9971   -1.0031   -0.9277 S   0  0  0  0  0  0  0  0  0  0  0  0
   -2.1805    0.1883    0.3970 P   0  0  0  0  0  0  0  0  0  0  0  0
   -1.2826    1.4106    1.6324 S   0  0  0  0  0  0  0  0  0  0  0  0
   -3.0732   -0.8474    1.1834 O   0  0  0  0  0  0  0  0  0  0  0  0
   -4.1766   -1.6074    0.6215 C   0  0  0  0  0  0  0  0  0  0  0  0
   -3.7480   -3.0079    0.2300 C   0  0  0  0  0  0  0  0  0  0  0  0
   -3.2241    0.8719   -0.5865 O   0  0  0  0  0  0  0  0  0  0  0  0
   -2.9788    2.1186   -1.2593 C   0  0  0  0  0  0  0  0  0  0  0  0
   -2.1350    1.9273   -2.5030 C   0  0  0  0  0  0  0  0  0  0  0  0
    4.9559   -1.0269   -1.9169 H   0  0  0  0  0  0  0  0  0  0  0  0
    4.5733   -0.3579   -3.5158 H   0  0  0  0  0  0  0  0  0  0  0  0
    4.2470    0.5884   -2.0557 H   0  0  0  0  0  0  0  0  0  0  0  0
    2.8276   -2.0056   -2.8590 H   0  0  0  0  0  0  0  0  0  0  0  0
    2.1369   -0.3541   -2.8944 H   0  0  0  0  0  0  0  0  0  0  0  0
    4.7332    1.3972    1.7048 H   0  0  0  0  0  0  0  0  0  0  0  0
    3.4687    2.3027    0.8171 H   0  0  0  0  0  0  0  0  0  0  0  0
    3.0633    2.3372    3.2952 H   0  0  0  0  0  0  0  0  0  0  0  0
    1.7502    1.5495    2.4130 H   0  0  0  0  0  0  0  0  0  0  0  0
    2.9388    0.5673    3.2805 H   0  0  0  0  0  0  0  0  0  0  0  0
   -0.9040   -2.4631    0.9878 H   0  0  0  0  0  0  0  0  0  0  0  0
    0.3553   -2.8083   -0.2473 H   0  0  0  0  0  0  0  0  0  0  0  0
   -4.9108   -1.6311    1.4286 H   0  0  0  0  0  0  0  0  0  0  0  0
   -4.5835   -1.0619   -0.2305 H   0  0  0  0  0  0  0  0  0  0  0  0
   -3.2917   -3.5130    1.0774 H   0  0  0  0  0  0  0  0  0  0  0  0
   -4.6271   -3.5652   -0.0785 H   0  0  0  0  0  0  0  0  0  0  0  0
   -3.0421   -2.9804   -0.5963 H   0  0  0  0  0  0  0  0  0  0  0  0
   -3.9773    2.4842   -1.5050 H   0  0  0  0  0  0  0  0  0  0  0  0
   -2.4931    2.8067   -0.5595 H   0  0  0  0  0  0  0  0  0  0  0  0
   -2.5561    1.1443   -3.1278 H   0  0  0  0  0  0  0  0  0  0  0  0
   -2.1045    2.8580   -3.0601 H   0  0  0  0  0  0  0  0  0  0  0  0
   -1.1160    1.6556   -2.2319 H   0  0  0  0  0  0  0  0  0  0  0  0
  1  2  1  0  0  0  0
  2  3  1  0  0  0  0
  3  4  2  0  0  0  0
  4  5  2  0  0  0  0
  4  6  2  0  0  0  0
  6  7  1  0  0  0  0
  7  8  1  0  0  0  0
  4  9  1  0  0  0  0
  9 10  1  0  0  0  0
 10 11  1  0  0  0  0
 11 12  1  0  0  0  0
 12 13  2  0  0  0  0
 12 14  2  0  0  0  0
 14 15  1  0  0  0  0
 15 16  1  0  0  0  0
 12 17  2  0  0  0  0
 17 18  1  0  0  0  0
 18 19  1  0  0  0  0
  1 20  1  0  0  0  0
  1 21  1  0  0  0  0
  1 22  1  0  0  0  0
  2 23  1  0  0  0  0
  2 24  1  0  0  0  0
  7 25  1  0  0  0  0
  7 26  1  0  0  0  0
  8 27  1  0  0  0  0
  8 28  1  0  0  0  0
  8 29  1  0  0  0  0
 10 30  1  0  0  0  0
 10 31  1  0  0  0  0
 15 32  1  0  0  0  0
 15 33  1  0  0  0  0
 16 34  1  0  0  0  0
 16 35  1  0  0  0  0
 16 36  1  0  0  0  0
 18 37  1  0  0  0  0
 18 38  1  0  0  0  0
 19 39  1  0  0  0  0
 19 40  1  0  0  0  0
 19 41  1  0  0  0  0
M  END
