 xtb: 6.7.1 (edcfbbe)
          04092505213D

 41 40  0     0  0            999 V2000
    3.6798   -2.6239   -1.5052 C   0  0  0  0  0  0  0  0  0  0  0  0
    4.1196   -1.2336   -1.9076 C   0  0  0  0  0  0  0  0  0  0  0  0
    4.0111   -0.2707   -0.8298 O   0  0  0  0  0  0  0  0  0  0  0  0
    2.7407    0.0380    0.0402 P   0  0  0  0  0  0  0  0  0  0  0  0
    2.8842    1.7762    0.9287 S   0  0  0  0  0  0  0  0  0  0  0  0
    2.6693   -1.2284    1.0008 O   0  0  0  0  0  0  0  0  0  0  0  0
    1.7857   -1.3152    2.1350 C   0  0  0  0  0  0  0  0  0  0  0  0
    2.5168   -0.9383    3.4090 C   0  0  0  0  0  0  0  0  0  0  0  0
    1.0834   -0.1584   -1.3073 S   0  0  0  0  0  0  0  0  0  0  0  0
    0.0756    1.2193   -0.7122 C   0  0  0  0  0  0  0  0  0  0  0  0
   -1.0034    0.7688    0.6696 S   0  0  0  0  0  0  0  0  0  0  0  0
   -2.7911    0.3128   -0.4231 P   0  0  0  0  0  0  0  0  0  0  0  0
   -2.6654    0.3334   -2.3725 S   0  0  0  0  0  0  0  0  0  0  0  0
   -3.8489    1.3523    0.1082 O   0  0  0  0  0  0  0  0  0  0  0  0
   -4.1088    1.5683    1.5207 C   0  0  0  0  0  0  0  0  0  0  0  0
   -3.6729    2.9655    1.9137 C   0  0  0  0  0  0  0  0  0  0  0  0
   -3.3283   -1.0389    0.2257 O   0  0  0  0  0  0  0  0  0  0  0  0
   -2.9368   -2.3426   -0.2388 C   0  0  0  0  0  0  0  0  0  0  0  0
   -1.5014   -2.6718    0.1187 C   0  0  0  0  0  0  0  0  0  0  0  0
    4.2133   -2.9449   -0.6146 H   0  0  0  0  0  0  0  0  0  0  0  0
    2.6108   -2.6349   -1.3028 H   0  0  0  0  0  0  0  0  0  0  0  0
    3.8907   -3.3102   -2.3196 H   0  0  0  0  0  0  0  0  0  0  0  0
    3.5276   -0.8660   -2.7496 H   0  0  0  0  0  0  0  0  0  0  0  0
    5.1808   -1.2018   -2.1593 H   0  0  0  0  0  0  0  0  0  0  0  0
    0.9199   -0.6644    1.9815 H   0  0  0  0  0  0  0  0  0  0  0  0
    1.4643   -2.3584    2.1558 H   0  0  0  0  0  0  0  0  0  0  0  0
    2.8286    0.1030    3.3673 H   0  0  0  0  0  0  0  0  0  0  0  0
    1.8540   -1.0753    4.2571 H   0  0  0  0  0  0  0  0  0  0  0  0
    3.3973   -1.5624    3.5333 H   0  0  0  0  0  0  0  0  0  0  0  0
   -0.5379    1.5443   -1.5521 H   0  0  0  0  0  0  0  0  0  0  0  0
    0.7372    2.0113   -0.3572 H   0  0  0  0  0  0  0  0  0  0  0  0
   -5.1860    1.4397    1.6353 H   0  0  0  0  0  0  0  0  0  0  0  0
   -3.5837    0.8082    2.1032 H   0  0  0  0  0  0  0  0  0  0  0  0
   -2.5944    3.0693    1.8208 H   0  0  0  0  0  0  0  0  0  0  0  0
   -4.1530    3.6986    1.2716 H   0  0  0  0  0  0  0  0  0  0  0  0
   -3.9582    3.1499    2.9445 H   0  0  0  0  0  0  0  0  0  0  0  0
   -3.6383   -3.0148    0.2578 H   0  0  0  0  0  0  0  0  0  0  0  0
   -3.0856   -2.3838   -1.3222 H   0  0  0  0  0  0  0  0  0  0  0  0
   -1.3050   -3.7122   -0.1195 H   0  0  0  0  0  0  0  0  0  0  0  0
   -0.8189   -2.0479   -0.4567 H   0  0  0  0  0  0  0  0  0  0  0  0
   -1.3306   -2.5051    1.1794 H   0  0  0  0  0  0  0  0  0  0  0  0
  1  2  1  0  0  0  0
  2  3  1  0  0  0  0
  3  4  2  0  0  0  0
  4  5  2  0  0  0  0
  4  6  2  0  0  0  0
  6  7  1  0  0  0  0
  7  8  1  0  0  0  0
  4  9  1  0  0  0  0
  9 10  1  0  0  0  0
 10 11  1  0  0  0  0
 11 12  1  0  0  0  0
 12 13  2  0  0  0  0
 12 14  2  0  0  0  0
 14 15  1  0  0  0  0
 15 16  1  0  0  0  0
 12 17  2  0  0  0  0
 17 18  1  0  0  0  0
 18 19  1  0  0  0  0
  1 20  1  0  0  0  0
  1 21  1  0  0  0  0
  1 22  1  0  0  0  0
  2 23  1  0  0  0  0
  2 24  1  0  0  0  0
  7 25  1  0  0  0  0
  7 26  1  0  0  0  0
  8 27  1  0  0  0  0
  8 28  1  0  0  0  0
  8 29  1  0  0  0  0
 10 30  1  0  0  0  0
 10 31  1  0  0  0  0
 15 32  1  0  0  0  0
 15 33  1  0  0  0  0
 16 34  1  0  0  0  0
 16 35  1  0  0  0  0
 16 36  1  0  0  0  0
 18 37  1  0  0  0  0
 18 38  1  0  0  0  0
 19 39  1  0  0  0  0
 19 40  1  0  0  0  0
 19 41  1  0  0  0  0
M  END
