 xtb: 6.7.1 (edcfbbe)
          04092505203D

 41 40  0     0  0            999 V2000
    3.6611   -1.9249   -2.3375 C   0  0  0  0  0  0  0  0  0  0  0  0
    4.0805   -0.5400   -1.8888 C   0  0  0  0  0  0  0  0  0  0  0  0
    3.6672   -0.2636   -0.5399 O   0  0  0  0  0  0  0  0  0  0  0  0
    2.1396   -0.1068   -0.1337 P   0  0  0  0  0  0  0  0  0  0  0  0
    1.0700    0.8626   -1.4669 S   0  0  0  0  0  0  0  0  0  0  0  0
    2.2292    0.5408    1.3081 O   0  0  0  0  0  0  0  0  0  0  0  0
    2.2828    1.9634    1.5306 C   0  0  0  0  0  0  0  0  0  0  0  0
    3.5435    2.5803    0.9644 C   0  0  0  0  0  0  0  0  0  0  0  0
    1.6185   -2.0697    0.4393 S   0  0  0  0  0  0  0  0  0  0  0  0
   -0.0844   -1.8087    0.9912 C   0  0  0  0  0  0  0  0  0  0  0  0
   -1.2658   -1.6441   -0.3968 S   0  0  0  0  0  0  0  0  0  0  0  0
   -2.2575    0.0853    0.2606 P   0  0  0  0  0  0  0  0  0  0  0  0
   -1.2351    1.4091    1.2972 S   0  0  0  0  0  0  0  0  0  0  0  0
   -3.4417   -0.6065    1.0516 O   0  0  0  0  0  0  0  0  0  0  0  0
   -4.4039    0.1559    1.8177 C   0  0  0  0  0  0  0  0  0  0  0  0
   -4.0679    0.0968    3.2947 C   0  0  0  0  0  0  0  0  0  0  0  0
   -3.0404    0.6779   -0.9851 O   0  0  0  0  0  0  0  0  0  0  0  0
   -2.4605    1.5031   -2.0119 C   0  0  0  0  0  0  0  0  0  0  0  0
   -2.1002    0.6701   -3.2249 C   0  0  0  0  0  0  0  0  0  0  0  0
    2.5749   -1.9801   -2.4053 H   0  0  0  0  0  0  0  0  0  0  0  0
    4.0858   -2.1316   -3.3146 H   0  0  0  0  0  0  0  0  0  0  0  0
    4.0035   -2.6723   -1.6263 H   0  0  0  0  0  0  0  0  0  0  0  0
    3.6504    0.2230   -2.5461 H   0  0  0  0  0  0  0  0  0  0  0  0
    5.1657   -0.4359   -1.8570 H   0  0  0  0  0  0  0  0  0  0  0  0
    1.3894    2.4181    1.0904 H   0  0  0  0  0  0  0  0  0  0  0  0
    2.2341    2.0557    2.6165 H   0  0  0  0  0  0  0  0  0  0  0  0
    4.4183    2.0580    1.3429 H   0  0  0  0  0  0  0  0  0  0  0  0
    3.5339    2.5126   -0.1228 H   0  0  0  0  0  0  0  0  0  0  0  0
    3.5903    3.6259    1.2522 H   0  0  0  0  0  0  0  0  0  0  0  0
   -0.1350   -0.9038    1.6013 H   0  0  0  0  0  0  0  0  0  0  0  0
   -0.3508   -2.6924    1.5643 H   0  0  0  0  0  0  0  0  0  0  0  0
   -4.4172    1.1877    1.4568 H   0  0  0  0  0  0  0  0  0  0  0  0
   -5.3638   -0.3175    1.6059 H   0  0  0  0  0  0  0  0  0  0  0  0
   -3.1109    0.5799    3.4811 H   0  0  0  0  0  0  0  0  0  0  0  0
   -4.8396    0.6114    3.8581 H   0  0  0  0  0  0  0  0  0  0  0  0
   -4.0106   -0.9374    3.6220 H   0  0  0  0  0  0  0  0  0  0  0  0
   -3.2352    2.2351   -2.2478 H   0  0  0  0  0  0  0  0  0  0  0  0
   -1.5803    2.0168   -1.6126 H   0  0  0  0  0  0  0  0  0  0  0  0
   -1.7629    1.3284   -4.0187 H   0  0  0  0  0  0  0  0  0  0  0  0
   -1.2964   -0.0214   -2.9818 H   0  0  0  0  0  0  0  0  0  0  0  0
   -2.9657    0.1058   -3.5598 H   0  0  0  0  0  0  0  0  0  0  0  0
  1  2  1  0  0  0  0
  2  3  1  0  0  0  0
  3  4  2  0  0  0  0
  4  5  2  0  0  0  0
  4  6  2  0  0  0  0
  6  7  1  0  0  0  0
  7  8  1  0  0  0  0
  4  9  1  0  0  0  0
  9 10  1  0  0  0  0
 10 11  1  0  0  0  0
 11 12  1  0  0  0  0
 12 13  2  0  0  0  0
 12 14  2  0  0  0  0
 14 15  1  0  0  0  0
 15 16  1  0  0  0  0
 12 17  2  0  0  0  0
 17 18  1  0  0  0  0
 18 19  1  0  0  0  0
  1 20  1  0  0  0  0
  1 21  1  0  0  0  0
  1 22  1  0  0  0  0
  2 23  1  0  0  0  0
  2 24  1  0  0  0  0
  7 25  1  0  0  0  0
  7 26  1  0  0  0  0
  8 27  1  0  0  0  0
  8 28  1  0  0  0  0
  8 29  1  0  0  0  0
 10 30  1  0  0  0  0
 10 31  1  0  0  0  0
 15 32  1  0  0  0  0
 15 33  1  0  0  0  0
 16 34  1  0  0  0  0
 16 35  1  0  0  0  0
 16 36  1  0  0  0  0
 18 37  1  0  0  0  0
 18 38  1  0  0  0  0
 19 39  1  0  0  0  0
 19 40  1  0  0  0  0
 19 41  1  0  0  0  0
M  END
