 xtb: 6.7.1 (edcfbbe)
          04032517493D

 12 12  0     0  0            999 V2000
   -0.0000   -2.1185   -0.0000 C   0  0  0  0  0  0  0  0  0  0  0  0
    1.2044   -1.4350   -0.0000 C   0  0  0  0  0  0  0  0  0  0  0  0
    1.1892   -0.0502   -0.0001 C   0  0  0  0  0  0  0  0  0  0  0  0
    0.0000    0.6602   -0.0000 C   0  0  0  0  0  0  0  0  0  0  0  0
   -1.1892   -0.0502    0.0000 C   0  0  0  0  0  0  0  0  0  0  0  0
   -1.2044   -1.4350    0.0000 C   0  0  0  0  0  0  0  0  0  0  0  0
   -2.6878    0.8268    0.0000 Cl  0  0  0  0  0  0  0  0  0  0  0  0
    2.6878    0.8267   -0.0001 Cl  0  0  0  0  0  0  0  0  0  0  0  0
   -0.0000   -3.1962    0.0000 H   0  0  0  0  0  0  0  0  0  0  0  0
    2.1420   -1.9655   -0.0001 H   0  0  0  0  0  0  0  0  0  0  0  0
    0.0000    1.7375   -0.0000 H   0  0  0  0  0  0  0  0  0  0  0  0
   -2.1420   -1.9654    0.0001 H   0  0  0  0  0  0  0  0  0  0  0  0
  1  2  4  0  0  0  0
  2  3  4  0  0  0  0
  3  4  4  0  0  0  0
  4  5  4  0  0  0  0
  1  6  4  0  0  0  0
  5  6  4  0  0  0  0
  5  7  1  0  0  0  0
  3  8  1  0  0  0  0
  1  9  1  0  0  0  0
  2 10  1  0  0  0  0
  4 11  1  0  0  0  0
  6 12  1  0  0  0  0
M  END
