 xtb: 6.7.1 (edcfbbe)
          04092505203D

 41 40  0     0  0            999 V2000
    5.5733   -0.4115   -0.6589 C   0  0  0  0  0  0  0  0  0  0  0  0
    4.3002    0.1449   -1.2622 C   0  0  0  0  0  0  0  0  0  0  0  0
    3.4543    0.7280   -0.2385 O   0  0  0  0  0  0  0  0  0  0  0  0
    2.3021   -0.0479    0.5076 P   0  0  0  0  0  0  0  0  0  0  0  0
    1.5367    1.0193    1.9522 S   0  0  0  0  0  0  0  0  0  0  0  0
    2.9941   -1.4008    0.9758 O   0  0  0  0  0  0  0  0  0  0  0  0
    2.4171   -2.2416    1.9897 C   0  0  0  0  0  0  0  0  0  0  0  0
    1.2428   -3.0426    1.4634 C   0  0  0  0  0  0  0  0  0  0  0  0
    1.0273   -0.7216   -1.0771 S   0  0  0  0  0  0  0  0  0  0  0  0
    0.5025    0.8933   -1.7042 C   0  0  0  0  0  0  0  0  0  0  0  0
   -0.7303    1.7275   -0.6635 S   0  0  0  0  0  0  0  0  0  0  0  0
   -2.1258    0.1120   -0.5715 P   0  0  0  0  0  0  0  0  0  0  0  0
   -2.2560   -0.9818   -2.1846 S   0  0  0  0  0  0  0  0  0  0  0  0
   -3.4595    0.8581   -0.1425 O   0  0  0  0  0  0  0  0  0  0  0  0
   -4.1787    1.6879   -1.0789 C   0  0  0  0  0  0  0  0  0  0  0  0
   -5.5739    1.9059   -0.5298 C   0  0  0  0  0  0  0  0  0  0  0  0
   -1.7683   -0.7232    0.7154 O   0  0  0  0  0  0  0  0  0  0  0  0
   -1.8351   -0.1768    2.0578 C   0  0  0  0  0  0  0  0  0  0  0  0
   -3.1418   -0.5562    2.7201 C   0  0  0  0  0  0  0  0  0  0  0  0
    6.0840    0.3609   -0.0903 H   0  0  0  0  0  0  0  0  0  0  0  0
    5.3465   -1.2428    0.0028 H   0  0  0  0  0  0  0  0  0  0  0  0
    6.2218   -0.7563   -1.4583 H   0  0  0  0  0  0  0  0  0  0  0  0
    3.7383   -0.6322   -1.7875 H   0  0  0  0  0  0  0  0  0  0  0  0
    4.5136    0.9736   -1.9401 H   0  0  0  0  0  0  0  0  0  0  0  0
    3.2382   -2.8933    2.2922 H   0  0  0  0  0  0  0  0  0  0  0  0
    2.1153   -1.6101    2.8319 H   0  0  0  0  0  0  0  0  0  0  0  0
    0.9079   -3.7342    2.2299 H   0  0  0  0  0  0  0  0  0  0  0  0
    0.4161   -2.3845    1.1983 H   0  0  0  0  0  0  0  0  0  0  0  0
    1.5331   -3.6011    0.5771 H   0  0  0  0  0  0  0  0  0  0  0  0
    0.0664    0.7001   -2.6836 H   0  0  0  0  0  0  0  0  0  0  0  0
    1.3533    1.5682   -1.7718 H   0  0  0  0  0  0  0  0  0  0  0  0
   -3.6366    2.6317   -1.1831 H   0  0  0  0  0  0  0  0  0  0  0  0
   -4.2023    1.1778   -2.0475 H   0  0  0  0  0  0  0  0  0  0  0  0
   -5.5204    2.3862    0.4430 H   0  0  0  0  0  0  0  0  0  0  0  0
   -6.1289    2.5400   -1.2131 H   0  0  0  0  0  0  0  0  0  0  0  0
   -6.0878    0.9542   -0.4274 H   0  0  0  0  0  0  0  0  0  0  0  0
   -0.9795   -0.6103    2.5798 H   0  0  0  0  0  0  0  0  0  0  0  0
   -1.7050    0.9077    2.0105 H   0  0  0  0  0  0  0  0  0  0  0  0
   -3.1328   -0.1993    3.7451 H   0  0  0  0  0  0  0  0  0  0  0  0
   -3.9768   -0.1074    2.1890 H   0  0  0  0  0  0  0  0  0  0  0  0
   -3.2602   -1.6362    2.7146 H   0  0  0  0  0  0  0  0  0  0  0  0
  1  2  1  0  0  0  0
  2  3  1  0  0  0  0
  3  4  2  0  0  0  0
  4  5  2  0  0  0  0
  4  6  2  0  0  0  0
  6  7  1  0  0  0  0
  7  8  1  0  0  0  0
  4  9  1  0  0  0  0
  9 10  1  0  0  0  0
 10 11  1  0  0  0  0
 11 12  1  0  0  0  0
 12 13  2  0  0  0  0
 12 14  2  0  0  0  0
 14 15  1  0  0  0  0
 15 16  1  0  0  0  0
 12 17  2  0  0  0  0
 17 18  1  0  0  0  0
 18 19  1  0  0  0  0
  1 20  1  0  0  0  0
  1 21  1  0  0  0  0
  1 22  1  0  0  0  0
  2 23  1  0  0  0  0
  2 24  1  0  0  0  0
  7 25  1  0  0  0  0
  7 26  1  0  0  0  0
  8 27  1  0  0  0  0
  8 28  1  0  0  0  0
  8 29  1  0  0  0  0
 10 30  1  0  0  0  0
 10 31  1  0  0  0  0
 15 32  1  0  0  0  0
 15 33  1  0  0  0  0
 16 34  1  0  0  0  0
 16 35  1  0  0  0  0
 16 36  1  0  0  0  0
 18 37  1  0  0  0  0
 18 38  1  0  0  0  0
 19 39  1  0  0  0  0
 19 40  1  0  0  0  0
 19 41  1  0  0  0  0
M  END
