 xtb: 6.7.1 (edcfbbe)
          04092505203D

 41 40  0     0  0            999 V2000
    1.0542   -2.2537    1.7549 C   0  0  0  0  0  0  0  0  0  0  0  0
    2.1322   -2.2269    0.6884 C   0  0  0  0  0  0  0  0  0  0  0  0
    2.8390   -0.9755    0.7264 O   0  0  0  0  0  0  0  0  0  0  0  0
    2.7238    0.1437   -0.4014 P   0  0  0  0  0  0  0  0  0  0  0  0
    2.9204   -0.5432   -2.2247 S   0  0  0  0  0  0  0  0  0  0  0  0
    3.8904    1.1195   -0.0090 O   0  0  0  0  0  0  0  0  0  0  0  0
    3.8787    2.0904    1.0677 C   0  0  0  0  0  0  0  0  0  0  0  0
    3.5415    1.4757    2.4082 C   0  0  0  0  0  0  0  0  0  0  0  0
    0.9375    1.2636   -0.0353 S   0  0  0  0  0  0  0  0  0  0  0  0
   -0.0333    0.6795   -1.4394 C   0  0  0  0  0  0  0  0  0  0  0  0
   -0.8281   -0.9246   -1.1415 S   0  0  0  0  0  0  0  0  0  0  0  0
   -2.4132   -0.1594    0.0192 P   0  0  0  0  0  0  0  0  0  0  0  0
   -3.3144    1.4540   -0.6522 S   0  0  0  0  0  0  0  0  0  0  0  0
   -1.6847   -0.0413    1.4197 O   0  0  0  0  0  0  0  0  0  0  0  0
   -2.2330    0.7310    2.5148 C   0  0  0  0  0  0  0  0  0  0  0  0
   -1.6025    2.1084    2.5607 C   0  0  0  0  0  0  0  0  0  0  0  0
   -3.3843   -1.3907    0.2790 O   0  0  0  0  0  0  0  0  0  0  0  0
   -4.4771   -1.7132   -0.5975 C   0  0  0  0  0  0  0  0  0  0  0  0
   -3.9937   -2.2287   -1.9378 C   0  0  0  0  0  0  0  0  0  0  0  0
    0.5660   -3.2228    1.7406 H   0  0  0  0  0  0  0  0  0  0  0  0
    1.4958   -2.0864    2.7331 H   0  0  0  0  0  0  0  0  0  0  0  0
    0.3082   -1.4846    1.5692 H   0  0  0  0  0  0  0  0  0  0  0  0
    1.7131   -2.3800   -0.3120 H   0  0  0  0  0  0  0  0  0  0  0  0
    2.8896   -2.9908    0.8769 H   0  0  0  0  0  0  0  0  0  0  0  0
    4.8935    2.4905    1.0496 H   0  0  0  0  0  0  0  0  0  0  0  0
    3.1645    2.8757    0.8072 H   0  0  0  0  0  0  0  0  0  0  0  0
    3.6382    2.2330    3.1801 H   0  0  0  0  0  0  0  0  0  0  0  0
    2.5187    1.1042    2.4020 H   0  0  0  0  0  0  0  0  0  0  0  0
    4.2150    0.6506    2.6244 H   0  0  0  0  0  0  0  0  0  0  0  0
    0.6249    0.5480   -2.2995 H   0  0  0  0  0  0  0  0  0  0  0  0
   -0.8022    1.4280   -1.6332 H   0  0  0  0  0  0  0  0  0  0  0  0
   -3.3181    0.7991    2.4003 H   0  0  0  0  0  0  0  0  0  0  0  0
   -1.9936    0.1500    3.4065 H   0  0  0  0  0  0  0  0  0  0  0  0
   -1.8689    2.6741    1.6705 H   0  0  0  0  0  0  0  0  0  0  0  0
   -1.9615    2.6376    3.4374 H   0  0  0  0  0  0  0  0  0  0  0  0
   -0.5203    2.0244    2.6037 H   0  0  0  0  0  0  0  0  0  0  0  0
   -5.0371   -2.4730   -0.0509 H   0  0  0  0  0  0  0  0  0  0  0  0
   -5.0929   -0.8175   -0.7287 H   0  0  0  0  0  0  0  0  0  0  0  0
   -3.2973   -3.0516   -1.7972 H   0  0  0  0  0  0  0  0  0  0  0  0
   -4.8431   -2.5698   -2.5209 H   0  0  0  0  0  0  0  0  0  0  0  0
   -3.4882   -1.4328   -2.4838 H   0  0  0  0  0  0  0  0  0  0  0  0
  1  2  1  0  0  0  0
  2  3  1  0  0  0  0
  3  4  2  0  0  0  0
  4  5  2  0  0  0  0
  4  6  2  0  0  0  0
  6  7  1  0  0  0  0
  7  8  1  0  0  0  0
  4  9  1  0  0  0  0
  9 10  1  0  0  0  0
 10 11  1  0  0  0  0
 11 12  1  0  0  0  0
 12 13  2  0  0  0  0
 12 14  2  0  0  0  0
 14 15  1  0  0  0  0
 15 16  1  0  0  0  0
 12 17  2  0  0  0  0
 17 18  1  0  0  0  0
 18 19  1  0  0  0  0
  1 20  1  0  0  0  0
  1 21  1  0  0  0  0
  1 22  1  0  0  0  0
  2 23  1  0  0  0  0
  2 24  1  0  0  0  0
  7 25  1  0  0  0  0
  7 26  1  0  0  0  0
  8 27  1  0  0  0  0
  8 28  1  0  0  0  0
  8 29  1  0  0  0  0
 10 30  1  0  0  0  0
 10 31  1  0  0  0  0
 15 32  1  0  0  0  0
 15 33  1  0  0  0  0
 16 34  1  0  0  0  0
 16 35  1  0  0  0  0
 16 36  1  0  0  0  0
 18 37  1  0  0  0  0
 18 38  1  0  0  0  0
 19 39  1  0  0  0  0
 19 40  1  0  0  0  0
 19 41  1  0  0  0  0
M  END
