 xtb: 6.7.1 (edcfbbe)
          04032519423D

 20 20  0     0  0            999 V2000
    0.8437    1.4109   -0.6209 C   0  0  0  0  0  0  0  0  0  0  0  0
    1.5876    0.1874   -0.0649 C   0  0  0  0  0  0  0  0  0  0  0  0
    2.5593    0.0954   -0.5711 H   0  0  0  0  0  0  0  0  0  0  0  0
    0.7807   -1.1023   -0.3337 C   0  0  0  0  0  0  0  0  0  0  0  0
    1.2171   -1.9040    0.2740 H   0  0  0  0  0  0  0  0  0  0  0  0
   -0.6796   -0.9083    0.1181 C   0  0  0  0  0  0  0  0  0  0  0  0
   -1.2883   -1.7450   -0.2424 H   0  0  0  0  0  0  0  0  0  0  0  0
   -1.2755    0.4039   -0.4470 C   0  0  0  0  0  0  0  0  0  0  0  0
   -1.3590    0.3532   -1.5458 H   0  0  0  0  0  0  0  0  0  0  0  0
   -0.4626    1.5097   -0.0914 O   0  0  0  0  0  0  0  0  0  0  0  0
   -2.5453    0.6216    0.0363 O   0  0  0  0  0  0  0  0  0  0  0  0
   -0.7984   -0.9021    1.5189 O   0  0  0  0  0  0  0  0  0  0  0  0
    0.8927   -1.5411   -1.6606 O   0  0  0  0  0  0  0  0  0  0  0  0
    1.7543    0.2725    1.3324 O   0  0  0  0  0  0  0  0  0  0  0  0
    0.8057    1.3574   -1.7176 H   0  0  0  0  0  0  0  0  0  0  0  0
    1.3396    2.3365   -0.3256 H   0  0  0  0  0  0  0  0  0  0  0  0
   -2.5416    0.4525    0.9960 H   0  0  0  0  0  0  0  0  0  0  0  0
   -0.0679   -0.3709    1.8848 H   0  0  0  0  0  0  0  0  0  0  0  0
    0.4878   -0.9077   -2.2687 H   0  0  0  0  0  0  0  0  0  0  0  0
    2.2723    1.0586    1.5580 H   0  0  0  0  0  0  0  0  0  0  0  0
  1  2  1  0  0  0  0
  2  3  1  0  0  0  0
  2  4  1  0  0  0  0
  4  5  1  0  0  0  0
  4  6  1  0  0  0  0
  6  7  1  0  0  0  0
  6  8  1  0  0  0  0
  8  9  1  0  0  0  0
  1 10  1  0  0  0  0
  8 10  1  0  0  0  0
  8 11  1  0  0  0  0
  6 12  1  0  0  0  0
  4 13  1  0  0  0  0
  2 14  1  0  0  0  0
  1 15  1  0  0  0  0
  1 16  1  0  0  0  0
 11 17  1  0  0  0  0
 12 18  1  0  0  0  0
 13 19  1  0  0  0  0
 14 20  1  0  0  0  0
M  END
