 xtb: 6.7.1 (edcfbbe)
          04092505213D

 41 40  0     0  0            999 V2000
    5.0410    0.2209   -1.2176 C   0  0  0  0  0  0  0  0  0  0  0  0
    4.1654   -1.0023   -1.3894 C   0  0  0  0  0  0  0  0  0  0  0  0
    3.1903   -1.1179   -0.3339 O   0  0  0  0  0  0  0  0  0  0  0  0
    1.9892   -0.0962   -0.1671 P   0  0  0  0  0  0  0  0  0  0  0  0
    1.2981    0.5954   -1.8709 S   0  0  0  0  0  0  0  0  0  0  0  0
    2.5701    0.9953    0.8223 O   0  0  0  0  0  0  0  0  0  0  0  0
    2.1273    2.3620    0.9120 C   0  0  0  0  0  0  0  0  0  0  0  0
    3.3331    3.2357    1.1923 C   0  0  0  0  0  0  0  0  0  0  0  0
    0.8594   -1.3069    1.1540 S   0  0  0  0  0  0  0  0  0  0  0  0
    0.1364   -2.4653   -0.0334 C   0  0  0  0  0  0  0  0  0  0  0  0
   -1.1071   -1.7339   -1.1574 S   0  0  0  0  0  0  0  0  0  0  0  0
   -2.0265   -0.3122    0.1133 P   0  0  0  0  0  0  0  0  0  0  0  0
   -1.1281    1.3633    0.6274 S   0  0  0  0  0  0  0  0  0  0  0  0
   -2.4558   -1.2582    1.2994 O   0  0  0  0  0  0  0  0  0  0  0  0
   -2.7484   -0.7573    2.6217 C   0  0  0  0  0  0  0  0  0  0  0  0
   -4.0496    0.0156    2.6416 C   0  0  0  0  0  0  0  0  0  0  0  0
   -3.3906   -0.0749   -0.6644 O   0  0  0  0  0  0  0  0  0  0  0  0
   -3.5008    0.8475   -1.7689 C   0  0  0  0  0  0  0  0  0  0  0  0
   -4.1833    2.1249   -1.3192 C   0  0  0  0  0  0  0  0  0  0  0  0
    4.4424    1.1211   -1.3517 H   0  0  0  0  0  0  0  0  0  0  0  0
    5.4792    0.2324   -0.2231 H   0  0  0  0  0  0  0  0  0  0  0  0
    5.8300    0.2080   -1.9631 H   0  0  0  0  0  0  0  0  0  0  0  0
    4.7397   -1.9267   -1.3152 H   0  0  0  0  0  0  0  0  0  0  0  0
    3.6358   -0.9644   -2.3469 H   0  0  0  0  0  0  0  0  0  0  0  0
    1.6358    2.6380   -0.0272 H   0  0  0  0  0  0  0  0  0  0  0  0
    1.3910    2.4222    1.7173 H   0  0  0  0  0  0  0  0  0  0  0  0
    4.0347    3.1913    0.3638 H   0  0  0  0  0  0  0  0  0  0  0  0
    3.0012    4.2600    1.3254 H   0  0  0  0  0  0  0  0  0  0  0  0
    3.8309    2.8970    2.0961 H   0  0  0  0  0  0  0  0  0  0  0  0
   -0.3459   -3.2390    0.5595 H   0  0  0  0  0  0  0  0  0  0  0  0
    0.9145   -2.8834   -0.6693 H   0  0  0  0  0  0  0  0  0  0  0  0
   -2.7957   -1.6564    3.2368 H   0  0  0  0  0  0  0  0  0  0  0  0
   -1.9143   -0.1268    2.9459 H   0  0  0  0  0  0  0  0  0  0  0  0
   -4.8553   -0.5961    2.2447 H   0  0  0  0  0  0  0  0  0  0  0  0
   -4.2818    0.3076    3.6609 H   0  0  0  0  0  0  0  0  0  0  0  0
   -3.9528    0.9107    2.0283 H   0  0  0  0  0  0  0  0  0  0  0  0
   -2.5049    1.0575   -2.1716 H   0  0  0  0  0  0  0  0  0  0  0  0
   -4.0903    0.3205   -2.5212 H   0  0  0  0  0  0  0  0  0  0  0  0
   -3.5683    2.6364   -0.5816 H   0  0  0  0  0  0  0  0  0  0  0  0
   -4.3219    2.7759   -2.1762 H   0  0  0  0  0  0  0  0  0  0  0  0
   -5.1493    1.8952   -0.8786 H   0  0  0  0  0  0  0  0  0  0  0  0
  1  2  1  0  0  0  0
  2  3  1  0  0  0  0
  3  4  2  0  0  0  0
  4  5  2  0  0  0  0
  4  6  2  0  0  0  0
  6  7  1  0  0  0  0
  7  8  1  0  0  0  0
  4  9  1  0  0  0  0
  9 10  1  0  0  0  0
 10 11  1  0  0  0  0
 11 12  1  0  0  0  0
 12 13  2  0  0  0  0
 12 14  2  0  0  0  0
 14 15  1  0  0  0  0
 15 16  1  0  0  0  0
 12 17  2  0  0  0  0
 17 18  1  0  0  0  0
 18 19  1  0  0  0  0
  1 20  1  0  0  0  0
  1 21  1  0  0  0  0
  1 22  1  0  0  0  0
  2 23  1  0  0  0  0
  2 24  1  0  0  0  0
  7 25  1  0  0  0  0
  7 26  1  0  0  0  0
  8 27  1  0  0  0  0
  8 28  1  0  0  0  0
  8 29  1  0  0  0  0
 10 30  1  0  0  0  0
 10 31  1  0  0  0  0
 15 32  1  0  0  0  0
 15 33  1  0  0  0  0
 16 34  1  0  0  0  0
 16 35  1  0  0  0  0
 16 36  1  0  0  0  0
 18 37  1  0  0  0  0
 18 38  1  0  0  0  0
 19 39  1  0  0  0  0
 19 40  1  0  0  0  0
 19 41  1  0  0  0  0
M  END
