 xtb: 6.7.1 (edcfbbe)
          04092507313D

 38 37  0     0  0            999 V2000
    3.5202   -3.0048    0.4259 C   0  0  0  0  0  0  0  0  0  0  0  0
    2.9810   -1.6614    0.8892 C   0  0  0  0  0  0  0  0  0  0  0  0
    2.7420   -0.7862   -0.2304 O   0  0  0  0  0  0  0  0  0  0  0  0
    1.6216   -0.9098   -0.9086 C   0  0  0  0  0  0  0  0  0  0  0  0
    0.7348   -1.6989   -0.6440 O   0  0  0  0  0  0  0  0  0  0  0  0
    1.5478    0.0746   -2.0570 C   0  0  0  0  0  0  0  0  0  0  0  0
    0.3122    0.9689   -1.9150 C   0  0  0  0  0  0  0  0  0  0  0  0
    0.2385    1.6289   -2.7833 H   0  0  0  0  0  0  0  0  0  0  0  0
    0.3602    1.8119   -0.6553 C   0  0  0  0  0  0  0  0  0  0  0  0
   -0.5760    1.8571    0.1242 O   0  0  0  0  0  0  0  0  0  0  0  0
    1.4832    2.4519   -0.5229 O   0  0  0  0  0  0  0  0  0  0  0  0
    1.7147    3.2208    0.6801 C   0  0  0  0  0  0  0  0  0  0  0  0
    2.3295    2.3399    1.7546 C   0  0  0  0  0  0  0  0  0  0  0  0
   -1.2573    0.0342   -1.8937 S   0  0  0  0  0  0  0  0  0  0  0  0
   -1.5850   -0.3783    0.1612 P   0  0  0  0  0  0  0  0  0  0  0  0
   -0.4557   -0.4674    1.7803 S   0  0  0  0  0  0  0  0  0  0  0  0
   -2.9683    0.3751    0.4833 O   0  0  0  0  0  0  0  0  0  0  0  0
   -3.1200    1.5224    1.3144 C   0  0  0  0  0  0  0  0  0  0  0  0
   -2.1910   -1.8131   -0.2171 O   0  0  0  0  0  0  0  0  0  0  0  0
   -2.7047   -2.7061    0.7710 C   0  0  0  0  0  0  0  0  0  0  0  0
    3.7574   -3.6112    1.2936 H   0  0  0  0  0  0  0  0  0  0  0  0
    2.7723   -3.5224   -0.1709 H   0  0  0  0  0  0  0  0  0  0  0  0
    4.4169   -2.8624   -0.1710 H   0  0  0  0  0  0  0  0  0  0  0  0
    3.7103   -1.1269    1.4975 H   0  0  0  0  0  0  0  0  0  0  0  0
    2.0472   -1.7818    1.4464 H   0  0  0  0  0  0  0  0  0  0  0  0
    1.4582   -0.4903   -2.9854 H   0  0  0  0  0  0  0  0  0  0  0  0
    2.4495    0.6859   -2.0656 H   0  0  0  0  0  0  0  0  0  0  0  0
    2.4007    4.0071    0.3657 H   0  0  0  0  0  0  0  0  0  0  0  0
    0.7659    3.6454    1.0165 H   0  0  0  0  0  0  0  0  0  0  0  0
    1.6378    1.5476    2.0388 H   0  0  0  0  0  0  0  0  0  0  0  0
    3.2469    1.8880    1.3878 H   0  0  0  0  0  0  0  0  0  0  0  0
    2.5490    2.9411    2.6304 H   0  0  0  0  0  0  0  0  0  0  0  0
   -3.0004    2.4249    0.7179 H   0  0  0  0  0  0  0  0  0  0  0  0
   -2.3746    1.5080    2.1117 H   0  0  0  0  0  0  0  0  0  0  0  0
   -4.1240    1.4603    1.7278 H   0  0  0  0  0  0  0  0  0  0  0  0
   -2.7786   -3.6745    0.2827 H   0  0  0  0  0  0  0  0  0  0  0  0
   -3.6847   -2.3662    1.1071 H   0  0  0  0  0  0  0  0  0  0  0  0
   -2.0209   -2.7611    1.6213 H   0  0  0  0  0  0  0  0  0  0  0  0
  1  2  1  0  0  0  0
  2  3  1  0  0  0  0
  3  4  4  0  0  0  0
  4  5  2  0  0  0  0
  4  6  1  0  0  0  0
  6  7  1  0  0  0  0
  7  8  1  0  0  0  0
  7  9  1  0  0  0  0
  9 10  2  0  0  0  0
  9 11  4  0  0  0  0
 11 12  1  0  0  0  0
 12 13  1  0  0  0  0
  7 14  1  0  0  0  0
 14 15  1  0  0  0  0
 15 16  2  0  0  0  0
 15 17  1  0  0  0  0
 17 18  1  0  0  0  0
 15 19  1  0  0  0  0
 19 20  1  0  0  0  0
  1 21  1  0  0  0  0
  1 22  1  0  0  0  0
  1 23  1  0  0  0  0
  2 24  1  0  0  0  0
  2 25  1  0  0  0  0
  6 26  1  0  0  0  0
  6 27  1  0  0  0  0
 12 28  1  0  0  0  0
 12 29  1  0  0  0  0
 13 30  1  0  0  0  0
 13 31  1  0  0  0  0
 13 32  1  0  0  0  0
 18 33  1  0  0  0  0
 18 34  1  0  0  0  0
 18 35  1  0  0  0  0
 20 36  1  0  0  0  0
 20 37  1  0  0  0  0
 20 38  1  0  0  0  0
M  END
