10
 xtb: 6.7.1 (edcfbbe)
C            1.53323355695500       -0.01476191750009        0.51168356899248
C            0.72081951030606        0.12586377162989       -0.54165969158328
C           -0.72081320514807       -0.12578421355116       -0.54169718917380
C           -1.53322306943384        0.01452282553072        0.51169028282517
H            2.59317514651360        0.20654476766128        0.43261449144406
H            1.16611764177152       -0.36435387535521        1.47378215792571
H            1.14809976482714        0.42608788227953       -1.49786128794640
H           -1.14808170822214       -0.42583914220275       -1.49796092666937
H           -2.59316288950656       -0.20677062283642        0.43256136819667
H           -1.16609608796560        0.36377641181836        1.47390480219289
