 xtb: 6.7.1 (edcfbbe)
          04032517433D

 15 15  0     0  0            999 V2000
   -1.8293   -0.7567   -0.1252 C   0  0  0  0  0  0  0  0  0  0  0  0
   -1.8305    0.7562    0.1249 C   0  0  0  0  0  0  0  0  0  0  0  0
   -0.5347    1.3044   -0.4401 C   0  0  0  0  0  0  0  0  0  0  0  0
    0.6567    0.0000    0.0000 S   0  0  0  0  0  0  0  0  0  0  0  0
   -0.5346   -1.3031    0.4435 C   0  0  0  0  0  0  0  0  0  0  0  0
    1.4529    0.3850    1.1582 O   0  0  0  0  0  0  0  0  0  0  0  0
    1.4483   -0.3858   -1.1610 O   0  0  0  0  0  0  0  0  0  0  0  0
   -1.8643   -0.9478   -1.1982 H   0  0  0  0  0  0  0  0  0  0  0  0
   -2.6932   -1.2254    0.3427 H   0  0  0  0  0  0  0  0  0  0  0  0
   -2.6935    1.2238   -0.3458 H   0  0  0  0  0  0  0  0  0  0  0  0
   -1.8693    0.9473    1.1978 H   0  0  0  0  0  0  0  0  0  0  0  0
   -0.5323    1.3659   -1.5232 H   0  0  0  0  0  0  0  0  0  0  0  0
   -0.2027    2.2330    0.0072 H   0  0  0  0  0  0  0  0  0  0  0  0
   -0.2021   -2.2332   -0.0004 H   0  0  0  0  0  0  0  0  0  0  0  0
   -0.5335   -1.3611    1.5268 H   0  0  0  0  0  0  0  0  0  0  0  0
  1  2  1  0  0  0  0
  2  3  1  0  0  0  0
  3  4  1  0  0  0  0
  1  5  1  0  0  0  0
  4  5  1  0  0  0  0
  4  6  2  0  0  0  0
  4  7  2  0  0  0  0
  1  8  1  0  0  0  0
  1  9  1  0  0  0  0
  2 10  1  0  0  0  0
  2 11  1  0  0  0  0
  3 12  1  0  0  0  0
  3 13  1  0  0  0  0
  5 14  1  0  0  0  0
  5 15  1  0  0  0  0
M  END
