41
 xtb: 6.7.1 (edcfbbe)
C            5.09197576945919       -1.46894320387386       -0.67340161886316
C            4.87960146313596       -0.13539401864012       -0.00168142756111
O            3.53920029727756       -0.02437352380332        0.59251384009514
P            2.22008621720875        0.29983216007685       -0.27402007283937
S            2.46462875009165        1.28507595353633       -1.93619230624043
O            1.26457688851187        0.96843618276162        0.82992327099919
C            1.19446201424208        2.42599230476058        1.01214876553519
C            2.43365120344687        2.96603666860913        1.68294892934152
S            1.40123483686272       -1.64637996851987       -0.43079966999975
C           -0.01106767958505       -1.37077272338039       -1.59031125327664
S           -1.65185193691788       -1.81550899171761       -0.90404606421298
P           -2.30892222884488        0.03133049903647       -0.07181194204026
S           -1.97720757528030        1.60620094415650       -1.15879680265382
O           -1.67523855261017        0.18354117975200        1.38927356952768
C           -1.87111178076012       -0.83765702545993        2.43563790704484
C           -0.65599178933752       -0.81279149791728        3.32475476133188
O           -3.83070424742696       -0.35620806928400        0.27876358273572
C           -4.85616189823970       -0.46070643014815       -0.77229250039845
C           -6.19666253181653       -0.27579629630610       -0.11171579814640
H            4.45279742390204       -1.58278395634892       -1.55359840661007
H            6.13524860773928       -1.53075696098148       -1.00016377616046
H            4.89867369969134       -2.29346135963309        0.01895738687497
H            5.01728630736105        0.69988599422525       -0.69455590068415
H            5.54686399125674       -0.00438152396859        0.85252810960178
H            1.02001469355867        2.88476453705860        0.03449136623082
H            0.30546642602532        2.56105815546279        1.63182810883673
H            3.31672543113802        2.85899752686019        1.04533165454351
H            2.28632261176453        4.03260427570560        1.88237457402960
H            2.61762090218684        2.45891871167108        2.63453385069680
H            0.13851215441821       -2.03210090257686       -2.44669552615257
H           -0.01779984137288       -0.33280008646103       -1.94179099033990
H           -2.78509731269996       -0.57140086644661        2.97310522739753
H           -2.00268498822476       -1.81671869843101        1.96378870688270
H            0.23863960214959       -1.11437107284135        2.77282422564600
H           -0.49880198958612        0.18483731894597        3.74510485372743
H           -0.80797686971018       -1.51516657147158        4.15037494770260
H           -4.66471832596166        0.31151790269867       -1.52409953312740
H           -4.76099968816955       -1.44812252937131       -1.23362068742175
H           -6.36541313300549       -1.03762983696553        0.65458280985124
H           -6.27369696570921        0.71519234459316        0.34407855121228
H           -6.97957537237408       -0.37034590914366       -0.87045779898467
