 xtb: 6.7.1 (edcfbbe)
          04092507313D

 38 37  0     0  0            999 V2000
    2.1128   -4.0794   -0.4851 C   0  0  0  0  0  0  0  0  0  0  0  0
    2.5807   -2.6787   -0.1431 C   0  0  0  0  0  0  0  0  0  0  0  0
    1.9773   -1.7664   -1.0794 O   0  0  0  0  0  0  0  0  0  0  0  0
    2.4274   -0.5338   -1.1312 C   0  0  0  0  0  0  0  0  0  0  0  0
    3.3598   -0.1148   -0.4778 O   0  0  0  0  0  0  0  0  0  0  0  0
    1.5956    0.3255   -2.0676 C   0  0  0  0  0  0  0  0  0  0  0  0
    0.3247    0.7447   -1.3135 C   0  0  0  0  0  0  0  0  0  0  0  0
   -0.1706    1.5758   -1.8172 H   0  0  0  0  0  0  0  0  0  0  0  0
    0.7373    1.1426    0.0923 C   0  0  0  0  0  0  0  0  0  0  0  0
    0.6793    0.3711    1.0309 O   0  0  0  0  0  0  0  0  0  0  0  0
    1.2126    2.3546    0.1185 O   0  0  0  0  0  0  0  0  0  0  0  0
    1.7725    2.8610    1.3474 C   0  0  0  0  0  0  0  0  0  0  0  0
    3.2887    2.8788    1.2482 C   0  0  0  0  0  0  0  0  0  0  0  0
   -0.8330   -0.6594   -1.2032 S   0  0  0  0  0  0  0  0  0  0  0  0
   -2.0027   -0.0015    0.4353 P   0  0  0  0  0  0  0  0  0  0  0  0
   -2.0943    1.9333    0.7227 S   0  0  0  0  0  0  0  0  0  0  0  0
   -3.4189   -0.6620    0.0789 O   0  0  0  0  0  0  0  0  0  0  0  0
   -4.2010   -0.1952   -1.0264 C   0  0  0  0  0  0  0  0  0  0  0  0
   -1.6571   -0.8236    1.7379 O   0  0  0  0  0  0  0  0  0  0  0  0
   -1.4914   -2.2552    1.7220 C   0  0  0  0  0  0  0  0  0  0  0  0
    2.4518   -4.3525   -1.4798 H   0  0  0  0  0  0  0  0  0  0  0  0
    2.5184   -4.7793    0.2376 H   0  0  0  0  0  0  0  0  0  0  0  0
    1.0280   -4.1252   -0.4620 H   0  0  0  0  0  0  0  0  0  0  0  0
    3.6684   -2.5781   -0.2130 H   0  0  0  0  0  0  0  0  0  0  0  0
    2.2718   -2.3768    0.8638 H   0  0  0  0  0  0  0  0  0  0  0  0
    1.3216   -0.2443   -2.9544 H   0  0  0  0  0  0  0  0  0  0  0  0
    2.1647    1.2163   -2.3317 H   0  0  0  0  0  0  0  0  0  0  0  0
    1.3604    3.8657    1.4533 H   0  0  0  0  0  0  0  0  0  0  0  0
    1.4306    2.2271    2.1702 H   0  0  0  0  0  0  0  0  0  0  0  0
    3.7053    3.2221    2.1890 H   0  0  0  0  0  0  0  0  0  0  0  0
    3.6592    1.8778    1.0347 H   0  0  0  0  0  0  0  0  0  0  0  0
    3.6027    3.5444    0.4498 H   0  0  0  0  0  0  0  0  0  0  0  0
   -4.2814    0.8924   -0.9944 H   0  0  0  0  0  0  0  0  0  0  0  0
   -5.1796   -0.6522   -0.9049 H   0  0  0  0  0  0  0  0  0  0  0  0
   -3.7411   -0.5091   -1.9630 H   0  0  0  0  0  0  0  0  0  0  0  0
   -1.2349   -2.5208    2.7441 H   0  0  0  0  0  0  0  0  0  0  0  0
   -0.6824   -2.5226    1.0418 H   0  0  0  0  0  0  0  0  0  0  0  0
   -2.4193   -2.7327    1.4126 H   0  0  0  0  0  0  0  0  0  0  0  0
  1  2  1  0  0  0  0
  2  3  1  0  0  0  0
  3  4  4  0  0  0  0
  4  5  2  0  0  0  0
  4  6  1  0  0  0  0
  6  7  1  0  0  0  0
  7  8  1  0  0  0  0
  7  9  1  0  0  0  0
  9 10  2  0  0  0  0
  9 11  4  0  0  0  0
 11 12  1  0  0  0  0
 12 13  1  0  0  0  0
  7 14  1  0  0  0  0
 14 15  1  0  0  0  0
 15 16  2  0  0  0  0
 15 17  1  0  0  0  0
 17 18  1  0  0  0  0
 15 19  2  0  0  0  0
 19 20  1  0  0  0  0
  1 21  1  0  0  0  0
  1 22  1  0  0  0  0
  1 23  1  0  0  0  0
  2 24  1  0  0  0  0
  2 25  1  0  0  0  0
  6 26  1  0  0  0  0
  6 27  1  0  0  0  0
 12 28  1  0  0  0  0
 12 29  1  0  0  0  0
 13 30  1  0  0  0  0
 13 31  1  0  0  0  0
 13 32  1  0  0  0  0
 18 33  1  0  0  0  0
 18 34  1  0  0  0  0
 18 35  1  0  0  0  0
 20 36  1  0  0  0  0
 20 37  1  0  0  0  0
 20 38  1  0  0  0  0
M  END
