 xtb: 6.7.1 (edcfbbe)
          04092505213D

 41 40  0     0  0            999 V2000
    2.5393    0.5431   -2.5655 C   0  0  0  0  0  0  0  0  0  0  0  0
    1.6921    1.4467   -1.6964 C   0  0  0  0  0  0  0  0  0  0  0  0
    1.1200    0.7330   -0.5812 O   0  0  0  0  0  0  0  0  0  0  0  0
    2.0315    0.2746    0.6446 P   0  0  0  0  0  0  0  0  0  0  0  0
    3.5135    1.4800    1.0718 S   0  0  0  0  0  0  0  0  0  0  0  0
    2.4714   -1.1936    0.2075 O   0  0  0  0  0  0  0  0  0  0  0  0
    3.5956   -1.8637    0.8036 C   0  0  0  0  0  0  0  0  0  0  0  0
    3.2318   -2.4973    2.1317 C   0  0  0  0  0  0  0  0  0  0  0  0
    0.6293    0.0826    2.1926 S   0  0  0  0  0  0  0  0  0  0  0  0
   -0.4103   -1.3517    1.6907 C   0  0  0  0  0  0  0  0  0  0  0  0
   -0.5131   -1.6529   -0.0855 S   0  0  0  0  0  0  0  0  0  0  0  0
   -1.7214   -0.0291   -0.7113 P   0  0  0  0  0  0  0  0  0  0  0  0
   -1.5823    0.3605   -2.6277 S   0  0  0  0  0  0  0  0  0  0  0  0
   -1.4077    1.1101    0.3410 O   0  0  0  0  0  0  0  0  0  0  0  0
   -2.3891    2.0641    0.8068 C   0  0  0  0  0  0  0  0  0  0  0  0
   -2.8516    2.9828   -0.3038 C   0  0  0  0  0  0  0  0  0  0  0  0
   -3.1944   -0.4505   -0.2525 O   0  0  0  0  0  0  0  0  0  0  0  0
   -3.9801   -1.3782   -1.0211 C   0  0  0  0  0  0  0  0  0  0  0  0
   -5.4185   -1.2690   -0.5569 C   0  0  0  0  0  0  0  0  0  0  0  0
    2.8642    1.0950   -3.4418 H   0  0  0  0  0  0  0  0  0  0  0  0
    3.4135    0.2048   -2.0112 H   0  0  0  0  0  0  0  0  0  0  0  0
    1.9583   -0.3211   -2.8796 H   0  0  0  0  0  0  0  0  0  0  0  0
    0.8247    1.8249   -2.2408 H   0  0  0  0  0  0  0  0  0  0  0  0
    2.2818    2.2819   -1.3045 H   0  0  0  0  0  0  0  0  0  0  0  0
    3.8789   -2.6148    0.0649 H   0  0  0  0  0  0  0  0  0  0  0  0
    4.4067   -1.1379    0.9279 H   0  0  0  0  0  0  0  0  0  0  0  0
    2.4112   -3.1977    2.0007 H   0  0  0  0  0  0  0  0  0  0  0  0
    4.0950   -3.0288    2.5195 H   0  0  0  0  0  0  0  0  0  0  0  0
    2.9414   -1.7290    2.8471 H   0  0  0  0  0  0  0  0  0  0  0  0
   -1.3976   -1.1514    2.1006 H   0  0  0  0  0  0  0  0  0  0  0  0
    0.0156   -2.2549    2.1206 H   0  0  0  0  0  0  0  0  0  0  0  0
   -3.2296    1.5181    1.2388 H   0  0  0  0  0  0  0  0  0  0  0  0
   -1.8564    2.6091    1.5884 H   0  0  0  0  0  0  0  0  0  0  0  0
   -3.5545    3.7073    0.0953 H   0  0  0  0  0  0  0  0  0  0  0  0
   -2.0043    3.5062   -0.7408 H   0  0  0  0  0  0  0  0  0  0  0  0
   -3.3392    2.4045   -1.0879 H   0  0  0  0  0  0  0  0  0  0  0  0
   -3.8776   -1.1254   -2.0820 H   0  0  0  0  0  0  0  0  0  0  0  0
   -3.5814   -2.3834   -0.8581 H   0  0  0  0  0  0  0  0  0  0  0  0
   -5.7929   -0.2636   -0.7278 H   0  0  0  0  0  0  0  0  0  0  0  0
   -6.0250   -1.9746   -1.1149 H   0  0  0  0  0  0  0  0  0  0  0  0
   -5.4866   -1.4966    0.5029 H   0  0  0  0  0  0  0  0  0  0  0  0
  1  2  1  0  0  0  0
  2  3  1  0  0  0  0
  3  4  1  0  0  0  0
  4  5  2  0  0  0  0
  4  6  2  0  0  0  0
  6  7  1  0  0  0  0
  7  8  1  0  0  0  0
  4  9  1  0  0  0  0
  9 10  1  0  0  0  0
 10 11  1  0  0  0  0
 11 12  1  0  0  0  0
 12 13  2  0  0  0  0
 12 14  2  0  0  0  0
 14 15  1  0  0  0  0
 15 16  1  0  0  0  0
 12 17  1  0  0  0  0
 17 18  1  0  0  0  0
 18 19  1  0  0  0  0
  1 20  1  0  0  0  0
  1 21  1  0  0  0  0
  1 22  1  0  0  0  0
  2 23  1  0  0  0  0
  2 24  1  0  0  0  0
  7 25  1  0  0  0  0
  7 26  1  0  0  0  0
  8 27  1  0  0  0  0
  8 28  1  0  0  0  0
  8 29  1  0  0  0  0
 10 30  1  0  0  0  0
 10 31  1  0  0  0  0
 15 32  1  0  0  0  0
 15 33  1  0  0  0  0
 16 34  1  0  0  0  0
 16 35  1  0  0  0  0
 16 36  1  0  0  0  0
 18 37  1  0  0  0  0
 18 38  1  0  0  0  0
 19 39  1  0  0  0  0
 19 40  1  0  0  0  0
 19 41  1  0  0  0  0
M  END
