 xtb: 6.7.1 (edcfbbe)
          04092505213D

 41 40  0     0  0            999 V2000
    4.0550   -1.8623   -1.7895 C   0  0  0  0  0  0  0  0  0  0  0  0
    4.6902   -0.5804   -1.2876 C   0  0  0  0  0  0  0  0  0  0  0  0
    4.0126   -0.0641   -0.1320 O   0  0  0  0  0  0  0  0  0  0  0  0
    2.5650    0.5748   -0.1944 P   0  0  0  0  0  0  0  0  0  0  0  0
    2.1537    1.4838   -1.8904 S   0  0  0  0  0  0  0  0  0  0  0  0
    2.7551    1.4680    1.0933 O   0  0  0  0  0  0  0  0  0  0  0  0
    1.6956    2.0701    1.8626 C   0  0  0  0  0  0  0  0  0  0  0  0
    1.5411    1.3347    3.1805 C   0  0  0  0  0  0  0  0  0  0  0  0
    1.2075   -0.9497    0.3945 S   0  0  0  0  0  0  0  0  0  0  0  0
    0.3071   -1.1934   -1.1792 C   0  0  0  0  0  0  0  0  0  0  0  0
   -1.3703   -1.7824   -0.9087 S   0  0  0  0  0  0  0  0  0  0  0  0
   -2.3040    0.0125   -0.2108 P   0  0  0  0  0  0  0  0  0  0  0  0
   -1.2574    1.6621   -0.3435 S   0  0  0  0  0  0  0  0  0  0  0  0
   -2.7956   -0.3554    1.2560 O   0  0  0  0  0  0  0  0  0  0  0  0
   -1.8714   -0.4464    2.3581 C   0  0  0  0  0  0  0  0  0  0  0  0
   -2.6757   -0.7041    3.6156 C   0  0  0  0  0  0  0  0  0  0  0  0
   -3.6456    0.1075   -1.0202 O   0  0  0  0  0  0  0  0  0  0  0  0
   -4.5809   -0.9919   -1.1757 C   0  0  0  0  0  0  0  0  0  0  0  0
   -5.6161   -0.9936   -0.0706 C   0  0  0  0  0  0  0  0  0  0  0  0
    4.6859   -2.3023   -2.5551 H   0  0  0  0  0  0  0  0  0  0  0  0
    3.9338   -2.5680   -0.9714 H   0  0  0  0  0  0  0  0  0  0  0  0
    3.0805   -1.6409   -2.2232 H   0  0  0  0  0  0  0  0  0  0  0  0
    4.6832    0.1847   -2.0706 H   0  0  0  0  0  0  0  0  0  0  0  0
    5.7104   -0.7455   -0.9386 H   0  0  0  0  0  0  0  0  0  0  0  0
    2.0085    3.1044    2.0201 H   0  0  0  0  0  0  0  0  0  0  0  0
    0.7670    2.0683    1.2836 H   0  0  0  0  0  0  0  0  0  0  0  0
    1.2508    0.3012    3.0055 H   0  0  0  0  0  0  0  0  0  0  0  0
    2.4844    1.3469    3.7187 H   0  0  0  0  0  0  0  0  0  0  0  0
    0.7798    1.8281    3.7762 H   0  0  0  0  0  0  0  0  0  0  0  0
    0.7966   -1.9738   -1.7571 H   0  0  0  0  0  0  0  0  0  0  0  0
    0.2975   -0.2415   -1.7170 H   0  0  0  0  0  0  0  0  0  0  0  0
   -1.1673   -1.2605    2.1579 H   0  0  0  0  0  0  0  0  0  0  0  0
   -1.3172    0.4951    2.4196 H   0  0  0  0  0  0  0  0  0  0  0  0
   -2.0003   -0.7644    4.4624 H   0  0  0  0  0  0  0  0  0  0  0  0
   -3.3836    0.1037    3.7770 H   0  0  0  0  0  0  0  0  0  0  0  0
   -3.2205   -1.6391    3.5247 H   0  0  0  0  0  0  0  0  0  0  0  0
   -5.0379   -0.8118   -2.1503 H   0  0  0  0  0  0  0  0  0  0  0  0
   -4.0193   -1.9299   -1.1979 H   0  0  0  0  0  0  0  0  0  0  0  0
   -5.1447   -1.1758    0.8907 H   0  0  0  0  0  0  0  0  0  0  0  0
   -6.1245   -0.0339   -0.0352 H   0  0  0  0  0  0  0  0  0  0  0  0
   -6.3418   -1.7762   -0.2690 H   0  0  0  0  0  0  0  0  0  0  0  0
  1  2  1  0  0  0  0
  2  3  1  0  0  0  0
  3  4  2  0  0  0  0
  4  5  2  0  0  0  0
  4  6  2  0  0  0  0
  6  7  1  0  0  0  0
  7  8  1  0  0  0  0
  4  9  1  0  0  0  0
  9 10  1  0  0  0  0
 10 11  1  0  0  0  0
 11 12  1  0  0  0  0
 12 13  2  0  0  0  0
 12 14  2  0  0  0  0
 14 15  1  0  0  0  0
 15 16  1  0  0  0  0
 12 17  2  0  0  0  0
 17 18  1  0  0  0  0
 18 19  1  0  0  0  0
  1 20  1  0  0  0  0
  1 21  1  0  0  0  0
  1 22  1  0  0  0  0
  2 23  1  0  0  0  0
  2 24  1  0  0  0  0
  7 25  1  0  0  0  0
  7 26  1  0  0  0  0
  8 27  1  0  0  0  0
  8 28  1  0  0  0  0
  8 29  1  0  0  0  0
 10 30  1  0  0  0  0
 10 31  1  0  0  0  0
 15 32  1  0  0  0  0
 15 33  1  0  0  0  0
 16 34  1  0  0  0  0
 16 35  1  0  0  0  0
 16 36  1  0  0  0  0
 18 37  1  0  0  0  0
 18 38  1  0  0  0  0
 19 39  1  0  0  0  0
 19 40  1  0  0  0  0
 19 41  1  0  0  0  0
M  END
