 xtb: 6.7.1 (edcfbbe)
          04092505213D

 41 40  0     0  0            999 V2000
    3.6720   -1.7219   -2.6186 C   0  0  0  0  0  0  0  0  0  0  0  0
    3.6560   -1.9957   -1.1283 C   0  0  0  0  0  0  0  0  0  0  0  0
    3.7150   -0.7623   -0.3701 O   0  0  0  0  0  0  0  0  0  0  0  0
    2.4442   -0.0208    0.2172 P   0  0  0  0  0  0  0  0  0  0  0  0
    2.9611    1.4668    1.3712 S   0  0  0  0  0  0  0  0  0  0  0  0
    1.5353   -1.1519    0.8941 O   0  0  0  0  0  0  0  0  0  0  0  0
    1.5292   -1.3740    2.3174 C   0  0  0  0  0  0  0  0  0  0  0  0
    2.8116   -2.0360    2.7785 C   0  0  0  0  0  0  0  0  0  0  0  0
    1.2444    0.4453   -1.4628 S   0  0  0  0  0  0  0  0  0  0  0  0
    0.2400    1.7091   -0.6366 C   0  0  0  0  0  0  0  0  0  0  0  0
   -0.7737    1.0598    0.7110 S   0  0  0  0  0  0  0  0  0  0  0  0
   -2.4217    0.3848   -0.4861 P   0  0  0  0  0  0  0  0  0  0  0  0
   -2.0519   -0.1885   -2.3175 S   0  0  0  0  0  0  0  0  0  0  0  0
   -3.4183    1.6061   -0.5362 O   0  0  0  0  0  0  0  0  0  0  0  0
   -3.9652    2.2542    0.6379 C   0  0  0  0  0  0  0  0  0  0  0  0
   -5.3499    1.7222    0.9462 C   0  0  0  0  0  0  0  0  0  0  0  0
   -3.1647   -0.6246    0.4895 O   0  0  0  0  0  0  0  0  0  0  0  0
   -2.5476   -1.7338    1.1693 C   0  0  0  0  0  0  0  0  0  0  0  0
   -1.6890   -2.5840    0.2566 C   0  0  0  0  0  0  0  0  0  0  0  0
    3.7431   -2.6651   -3.1513 H   0  0  0  0  0  0  0  0  0  0  0  0
    2.7620   -1.2101   -2.9264 H   0  0  0  0  0  0  0  0  0  0  0  0
    4.5257   -1.1001   -2.8738 H   0  0  0  0  0  0  0  0  0  0  0  0
    4.5499   -2.5401   -0.8188 H   0  0  0  0  0  0  0  0  0  0  0  0
    2.7612   -2.5510   -0.8378 H   0  0  0  0  0  0  0  0  0  0  0  0
    1.3871   -0.4114    2.8181 H   0  0  0  0  0  0  0  0  0  0  0  0
    0.6602   -2.0121    2.4834 H   0  0  0  0  0  0  0  0  0  0  0  0
    3.6577   -1.3827    2.5659 H   0  0  0  0  0  0  0  0  0  0  0  0
    2.7624   -2.2107    3.8485 H   0  0  0  0  0  0  0  0  0  0  0  0
    2.9579   -2.9825    2.2645 H   0  0  0  0  0  0  0  0  0  0  0  0
   -0.3997    2.1417   -1.4036 H   0  0  0  0  0  0  0  0  0  0  0  0
    0.9011    2.4550   -0.1960 H   0  0  0  0  0  0  0  0  0  0  0  0
   -3.2825    2.1019    1.4789 H   0  0  0  0  0  0  0  0  0  0  0  0
   -3.9966    3.3136    0.3766 H   0  0  0  0  0  0  0  0  0  0  0  0
   -5.3026    0.6639    1.1875 H   0  0  0  0  0  0  0  0  0  0  0  0
   -5.7597    2.2665    1.7913 H   0  0  0  0  0  0  0  0  0  0  0  0
   -5.9983    1.8548    0.0845 H   0  0  0  0  0  0  0  0  0  0  0  0
   -1.9566   -1.3316    1.9973 H   0  0  0  0  0  0  0  0  0  0  0  0
   -3.3946   -2.3013    1.5593 H   0  0  0  0  0  0  0  0  0  0  0  0
   -0.8228   -2.0178   -0.0856 H   0  0  0  0  0  0  0  0  0  0  0  0
   -1.3470   -3.4625    0.7948 H   0  0  0  0  0  0  0  0  0  0  0  0
   -2.2581   -2.8966   -0.6160 H   0  0  0  0  0  0  0  0  0  0  0  0
  1  2  1  0  0  0  0
  2  3  1  0  0  0  0
  3  4  2  0  0  0  0
  4  5  2  0  0  0  0
  4  6  1  0  0  0  0
  6  7  1  0  0  0  0
  7  8  1  0  0  0  0
  4  9  1  0  0  0  0
  9 10  1  0  0  0  0
 10 11  1  0  0  0  0
 11 12  1  0  0  0  0
 12 13  2  0  0  0  0
 12 14  2  0  0  0  0
 14 15  1  0  0  0  0
 15 16  1  0  0  0  0
 12 17  2  0  0  0  0
 17 18  1  0  0  0  0
 18 19  1  0  0  0  0
  1 20  1  0  0  0  0
  1 21  1  0  0  0  0
  1 22  1  0  0  0  0
  2 23  1  0  0  0  0
  2 24  1  0  0  0  0
  7 25  1  0  0  0  0
  7 26  1  0  0  0  0
  8 27  1  0  0  0  0
  8 28  1  0  0  0  0
  8 29  1  0  0  0  0
 10 30  1  0  0  0  0
 10 31  1  0  0  0  0
 15 32  1  0  0  0  0
 15 33  1  0  0  0  0
 16 34  1  0  0  0  0
 16 35  1  0  0  0  0
 16 36  1  0  0  0  0
 18 37  1  0  0  0  0
 18 38  1  0  0  0  0
 19 39  1  0  0  0  0
 19 40  1  0  0  0  0
 19 41  1  0  0  0  0
M  END
