 xtb: 6.7.1 (edcfbbe)
          04092505213D

 41 40  0     0  0            999 V2000
    4.1537   -0.6837   -2.3801 C   0  0  0  0  0  0  0  0  0  0  0  0
    4.4596   -0.5529   -0.9006 C   0  0  0  0  0  0  0  0  0  0  0  0
    3.5809    0.4132   -0.2700 O   0  0  0  0  0  0  0  0  0  0  0  0
    2.3131    0.0686    0.6017 P   0  0  0  0  0  0  0  0  0  0  0  0
    1.6779    1.7066    1.4591 S   0  0  0  0  0  0  0  0  0  0  0  0
    2.8591   -1.0940    1.5374 O   0  0  0  0  0  0  0  0  0  0  0  0
    2.0360   -2.0155    2.2758 C   0  0  0  0  0  0  0  0  0  0  0  0
    1.0594   -1.3141    3.1967 C   0  0  0  0  0  0  0  0  0  0  0  0
    0.9621   -0.9977   -0.6780 S   0  0  0  0  0  0  0  0  0  0  0  0
    0.5398    0.3831   -1.7669 C   0  0  0  0  0  0  0  0  0  0  0  0
   -0.6311    1.5705   -1.0504 S   0  0  0  0  0  0  0  0  0  0  0  0
   -2.2155    0.2028   -0.7797 P   0  0  0  0  0  0  0  0  0  0  0  0
   -2.5175   -1.0994   -2.2042 S   0  0  0  0  0  0  0  0  0  0  0  0
   -3.4853    1.1284   -0.5736 O   0  0  0  0  0  0  0  0  0  0  0  0
   -3.5033    2.4149    0.0866 C   0  0  0  0  0  0  0  0  0  0  0  0
   -3.0609    2.3399    1.5329 C   0  0  0  0  0  0  0  0  0  0  0  0
   -1.8472   -0.4378    0.6400 O   0  0  0  0  0  0  0  0  0  0  0  0
   -2.2165   -1.7876    0.9750 C   0  0  0  0  0  0  0  0  0  0  0  0
   -3.6982   -1.8907    1.2728 C   0  0  0  0  0  0  0  0  0  0  0  0
    4.9120   -1.3093   -2.8404 H   0  0  0  0  0  0  0  0  0  0  0  0
    3.1801   -1.1418   -2.5370 H   0  0  0  0  0  0  0  0  0  0  0  0
    4.1684    0.2946   -2.8535 H   0  0  0  0  0  0  0  0  0  0  0  0
    5.4596   -0.1467   -0.7402 H   0  0  0  0  0  0  0  0  0  0  0  0
    4.3656   -1.5106   -0.3869 H   0  0  0  0  0  0  0  0  0  0  0  0
    1.5087   -2.6520    1.5591 H   0  0  0  0  0  0  0  0  0  0  0  0
    2.7580   -2.6100    2.8387 H   0  0  0  0  0  0  0  0  0  0  0  0
    0.5222   -2.0519    3.7843 H   0  0  0  0  0  0  0  0  0  0  0  0
    1.5883   -0.6379    3.8642 H   0  0  0  0  0  0  0  0  0  0  0  0
    0.3492   -0.7279    2.6143 H   0  0  0  0  0  0  0  0  0  0  0  0
    0.0931   -0.0612   -2.6565 H   0  0  0  0  0  0  0  0  0  0  0  0
    1.4350    0.9519   -2.0107 H   0  0  0  0  0  0  0  0  0  0  0  0
   -2.8660    3.1002   -0.4789 H   0  0  0  0  0  0  0  0  0  0  0  0
   -4.5462    2.7244   -0.0003 H   0  0  0  0  0  0  0  0  0  0  0  0
   -3.1796    3.3176    1.9896 H   0  0  0  0  0  0  0  0  0  0  0  0
   -3.6626    1.6157    2.0757 H   0  0  0  0  0  0  0  0  0  0  0  0
   -2.0129    2.0512    1.5975 H   0  0  0  0  0  0  0  0  0  0  0  0
   -1.9420   -2.4422    0.1413 H   0  0  0  0  0  0  0  0  0  0  0  0
   -1.6096   -2.0261    1.8492 H   0  0  0  0  0  0  0  0  0  0  0  0
   -3.9447   -2.9153    1.5321 H   0  0  0  0  0  0  0  0  0  0  0  0
   -3.9660   -1.2349    2.0969 H   0  0  0  0  0  0  0  0  0  0  0  0
   -4.2685   -1.5999    0.3904 H   0  0  0  0  0  0  0  0  0  0  0  0
  1  2  1  0  0  0  0
  2  3  1  0  0  0  0
  3  4  2  0  0  0  0
  4  5  2  0  0  0  0
  4  6  2  0  0  0  0
  6  7  1  0  0  0  0
  7  8  1  0  0  0  0
  4  9  1  0  0  0  0
  9 10  1  0  0  0  0
 10 11  1  0  0  0  0
 11 12  1  0  0  0  0
 12 13  2  0  0  0  0
 12 14  2  0  0  0  0
 14 15  1  0  0  0  0
 15 16  1  0  0  0  0
 12 17  1  0  0  0  0
 17 18  1  0  0  0  0
 18 19  1  0  0  0  0
  1 20  1  0  0  0  0
  1 21  1  0  0  0  0
  1 22  1  0  0  0  0
  2 23  1  0  0  0  0
  2 24  1  0  0  0  0
  7 25  1  0  0  0  0
  7 26  1  0  0  0  0
  8 27  1  0  0  0  0
  8 28  1  0  0  0  0
  8 29  1  0  0  0  0
 10 30  1  0  0  0  0
 10 31  1  0  0  0  0
 15 32  1  0  0  0  0
 15 33  1  0  0  0  0
 16 34  1  0  0  0  0
 16 35  1  0  0  0  0
 16 36  1  0  0  0  0
 18 37  1  0  0  0  0
 18 38  1  0  0  0  0
 19 39  1  0  0  0  0
 19 40  1  0  0  0  0
 19 41  1  0  0  0  0
M  END
