41
 xtb: 6.7.1 (edcfbbe)
C            5.90915362481355        0.67437335373664       -2.03197611225727
C            4.42919461443534        0.86347738748211       -1.82437978422368
O            4.09816739604417        0.27092618241516       -0.51989784377317
P            2.57448453802695        0.27172016065178       -0.00449628605435
S            1.55706873064810        1.91462407105319       -0.22787641853617
O            2.91866330676407       -0.22090964774300        1.48340183923428
C            1.92840922396575       -0.81742355244279        2.39050295338782
C            1.05396383798593        0.21769786510448        3.05273252843395
S            1.77930571358805       -1.42345412223505       -1.04339637031192
C            0.04870984552186       -0.93705734193192       -1.35456914172372
S           -1.05843286074091       -1.43854618422952        0.04664269287022
P           -2.56623775089725        0.04134379025695       -0.07346555814511
S           -2.91500357602124        0.77618417130335       -1.84450149494140
O           -2.06966420848222        1.06989641550247        1.05551691620421
C           -2.86831645038290        2.27220979701925        1.36217584928758
C           -1.94090313444671        3.45879050113799        1.37409865190933
O           -3.80881586299605       -0.65182786878379        0.68280289531081
C           -4.89958982645640       -1.33348460436654       -0.02895525339349
C           -4.50170940864953       -2.71011656022668       -0.49943541283667
H            6.18725745716644        1.10865091057807       -2.99697663600884
H            6.48104454655746        1.17938539481088       -1.24839732791005
H            6.17274715096965       -0.38694361883381       -2.04162749084115
H            3.84266258955515        0.35351351513356       -2.59616576962395
H            4.15200163204705        1.92131094698867       -1.79909403049964
H            1.34158453855788       -1.55190327926564        1.82914353924373
H            2.54427296165871       -1.34747626426074        3.11963081746852
H            0.39555622489718        0.71222628993196        2.33500453216297
H            0.43084640584226       -0.28762224451734        3.79833729921994
H            1.65972143280782        0.97146128799746        3.56410831987935
H           -0.25919085641660       -1.46429830996151       -2.26039001758388
H           -0.00330379485842        0.14356697871007       -1.51120746829349
H           -3.65958935153165        2.38730445838052        0.61453573769643
H           -3.32442923834743        2.09151402981813        2.33914155837098
H           -1.51199955856007        3.62771259874799        0.38206838339835
H           -2.50493640591906        4.35044727840524        1.66597813929613
H           -1.12923459488883        3.31275819849952        2.09314026404805
H           -5.69747511574359       -1.37848435860574        0.71502678468249
H           -5.21925395435393       -0.69385607712055       -0.85703556732761
H           -4.12618083032266       -3.31615341614907        0.33014707740910
H           -5.38779579735349       -3.20299382461339       -0.91276715457471
H           -3.74020286549742       -2.66583324380615       -1.28299426434717
