 xtb: 6.7.1 (edcfbbe)
          04032520463D

 10  9  0     0  0            999 V2000
    1.4813    0.3505   -0.4890 C   0  0  0  0  0  0  0  0  0  0  0  0
    0.8350   -0.2485    0.4922 C   0  0  0  0  0  0  0  0  0  0  0  0
   -0.6568   -0.3689    0.5840 C   0  0  0  0  0  0  0  0  0  0  0  0
   -1.2910    0.2437   -0.5186 O   0  0  0  0  0  0  0  0  0  0  0  0
    2.5551    0.4106   -0.5096 H   0  0  0  0  0  0  0  0  0  0  0  0
    0.9463    0.8016   -1.3068 H   0  0  0  0  0  0  0  0  0  0  0  0
    1.3591   -0.7060    1.3200 H   0  0  0  0  0  0  0  0  0  0  0  0
   -0.9855    0.0990    1.5249 H   0  0  0  0  0  0  0  0  0  0  0  0
   -0.9164   -1.4378    0.6313 H   0  0  0  0  0  0  0  0  0  0  0  0
   -2.2477    0.1483   -0.4255 H   0  0  0  0  0  0  0  0  0  0  0  0
  1  2  2  0  0  0  0
  2  3  1  0  0  0  0
  3  4  1  0  0  0  0
  1  5  1  0  0  0  0
  1  6  1  0  0  0  0
  2  7  1  0  0  0  0
  3  8  1  0  0  0  0
  3  9  1  0  0  0  0
  4 10  1  0  0  0  0
M  END
