 xtb: 6.7.1 (edcfbbe)
          04092507313D

 38 37  0     0  0            999 V2000
    2.0831   -3.3689   -2.4128 C   0  0  0  0  0  0  0  0  0  0  0  0
    3.2467   -2.8669   -1.5728 C   0  0  0  0  0  0  0  0  0  0  0  0
    2.9332   -1.5910   -0.9840 O   0  0  0  0  0  0  0  0  0  0  0  0
    2.2646   -1.5711    0.1508 C   0  0  0  0  0  0  0  0  0  0  0  0
    1.9598   -2.5495    0.7939 O   0  0  0  0  0  0  0  0  0  0  0  0
    1.9180   -0.1501    0.5631 C   0  0  0  0  0  0  0  0  0  0  0  0
    1.1487    0.5438   -0.5645 C   0  0  0  0  0  0  0  0  0  0  0  0
    1.8154    0.7478   -1.4047 H   0  0  0  0  0  0  0  0  0  0  0  0
    0.5140    1.8271   -0.0670 C   0  0  0  0  0  0  0  0  0  0  0  0
   -0.6955    1.9588    0.0052 O   0  0  0  0  0  0  0  0  0  0  0  0
    1.3956    2.7127    0.2756 O   0  0  0  0  0  0  0  0  0  0  0  0
    0.9684    3.9930    0.8003 C   0  0  0  0  0  0  0  0  0  0  0  0
    1.7512    5.0874    0.0988 C   0  0  0  0  0  0  0  0  0  0  0  0
   -0.1849   -0.5029   -1.2489 S   0  0  0  0  0  0  0  0  0  0  0  0
   -1.6663   -0.3156    0.2409 P   0  0  0  0  0  0  0  0  0  0  0  0
   -1.3426    0.0305    2.1553 S   0  0  0  0  0  0  0  0  0  0  0  0
   -2.9660    0.3962   -0.3590 O   0  0  0  0  0  0  0  0  0  0  0  0
   -3.4524    1.6922   -0.0115 C   0  0  0  0  0  0  0  0  0  0  0  0
   -2.1048   -1.8432   -0.0053 O   0  0  0  0  0  0  0  0  0  0  0  0
   -3.1710   -2.4423    0.7340 C   0  0  0  0  0  0  0  0  0  0  0  0
    1.2129   -3.5380   -1.7819 H   0  0  0  0  0  0  0  0  0  0  0  0
    1.8216   -2.6342   -3.1690 H   0  0  0  0  0  0  0  0  0  0  0  0
    2.3598   -4.3017   -2.8925 H   0  0  0  0  0  0  0  0  0  0  0  0
    4.1276   -2.6751   -2.1851 H   0  0  0  0  0  0  0  0  0  0  0  0
    3.4815   -3.5744   -0.7725 H   0  0  0  0  0  0  0  0  0  0  0  0
    2.8346    0.4056    0.7647 H   0  0  0  0  0  0  0  0  0  0  0  0
    1.3176   -0.2034    1.4739 H   0  0  0  0  0  0  0  0  0  0  0  0
   -0.1086    4.0950    0.6485 H   0  0  0  0  0  0  0  0  0  0  0  0
    1.1850    3.9728    1.8709 H   0  0  0  0  0  0  0  0  0  0  0  0
    1.5236    5.0976   -0.9633 H   0  0  0  0  0  0  0  0  0  0  0  0
    1.4822    6.0466    0.5283 H   0  0  0  0  0  0  0  0  0  0  0  0
    2.8163    4.9229    0.2296 H   0  0  0  0  0  0  0  0  0  0  0  0
   -4.5361    1.6333   -0.0856 H   0  0  0  0  0  0  0  0  0  0  0  0
   -3.0545    2.4270   -0.7079 H   0  0  0  0  0  0  0  0  0  0  0  0
   -3.1502    1.9459    1.0056 H   0  0  0  0  0  0  0  0  0  0  0  0
   -3.0615   -2.2193    1.7977 H   0  0  0  0  0  0  0  0  0  0  0  0
   -3.0840   -3.5122    0.5622 H   0  0  0  0  0  0  0  0  0  0  0  0
   -4.1300   -2.0707    0.3741 H   0  0  0  0  0  0  0  0  0  0  0  0
  1  2  1  0  0  0  0
  2  3  1  0  0  0  0
  3  4  1  0  0  0  0
  4  5  2  0  0  0  0
  4  6  1  0  0  0  0
  6  7  1  0  0  0  0
  7  8  1  0  0  0  0
  7  9  1  0  0  0  0
  9 10  2  0  0  0  0
  9 11  4  0  0  0  0
 11 12  1  0  0  0  0
 12 13  1  0  0  0  0
  7 14  1  0  0  0  0
 14 15  1  0  0  0  0
 15 16  2  0  0  0  0
 15 17  2  0  0  0  0
 17 18  1  0  0  0  0
 15 19  1  0  0  0  0
 19 20  1  0  0  0  0
  1 21  1  0  0  0  0
  1 22  1  0  0  0  0
  1 23  1  0  0  0  0
  2 24  1  0  0  0  0
  2 25  1  0  0  0  0
  6 26  1  0  0  0  0
  6 27  1  0  0  0  0
 12 28  1  0  0  0  0
 12 29  1  0  0  0  0
 13 30  1  0  0  0  0
 13 31  1  0  0  0  0
 13 32  1  0  0  0  0
 18 33  1  0  0  0  0
 18 34  1  0  0  0  0
 18 35  1  0  0  0  0
 20 36  1  0  0  0  0
 20 37  1  0  0  0  0
 20 38  1  0  0  0  0
M  END
