  26
 
 C          4.2040210605       -0.2591417936       -0.0175706557
 N          2.7779700453       -0.4740871138        0.1027822562
 C          2.4070476050       -1.7062283726        0.7600761418
 C          1.9176940328        0.3998701792       -0.4388405707
 O          2.2975406533        1.3747002837       -1.0991717867
 C          0.4596974120        0.1753098970       -0.2114625893
 C         -0.3949997822        0.1102919188       -1.3029615687
 C         -1.7613291994       -0.0301702688       -1.1341848529
 C         -2.2966854179       -0.0808881920        0.1487972087
 C         -1.4418944439        0.0137372342        1.2504911948
 C         -0.0820050297        0.1384017754        1.0726485990
 O         -3.6188642329       -0.2130558797        0.4381285594
 C         -4.5471381595       -0.2931195021       -0.6277744387
 H          4.6558717578       -1.0457181103       -0.6234114176
 H          4.6601758976       -0.2599739197        0.9724190441
 H          4.3676297691        0.7035235587       -0.4970934053
 H          2.6323391128       -1.6492497614        1.8268010011
 H          2.9837187086       -2.5244183444        0.3263154814
 H          1.3488340155       -1.9080058056        0.6258071111
 H          0.0207402101        0.1671882644       -2.2979843934
 H         -2.3929047230       -0.0917455672       -2.0046330788
 H         -1.8764758822       -0.0108112038        2.2367024371
 H          0.5635964696        0.2259146535        1.9324415934
 H         -5.5211632074       -0.3758364744       -0.1511396653
 H         -4.3631733242       -1.1758300500       -1.2454765090
 H         -4.5158927982        0.6068805860       -1.2473314391
          26
        -39.11246258
 C          4.1950616535        0.1278918362        0.1146821887
 N          2.7711418388        0.3553578808        0.2352665010
 C          2.4097944323        1.5828085102        0.9061388616
 C          1.9031934969       -0.5665657335       -0.2052471677
 O          2.2742496805       -1.6531179431       -0.6663537707
 C          0.4475759171       -0.2432203224       -0.1395147485
 C         -0.4135703822       -1.1228469546        0.5016486021
 C         -1.7785693200       -0.8975346048        0.5250872885
 C         -2.3067158736        0.2128008173       -0.1261414842
 C         -1.4456855440        1.0850593295       -0.7969160148
 C         -0.0867646085        0.8609705808       -0.8018341633
 O         -3.6275587587        0.5326253487       -0.1751615806
 C         -4.5600636674       -0.3158042689        0.4694133160
 H          4.6544476039        0.9551215553       -0.4267031695
 H          4.3499049905       -0.8000601901       -0.4319088749
 H          4.6507984383        0.0456195896        1.1024178082
 H          2.6221283998        2.4416477889        0.2664549327
 H          3.0028454939        1.6732252914        1.8170893854
 H          1.3558906691        1.5800178453        1.1673472832
 H         -0.0039153492       -1.9938654351        0.9912132961
 H         -2.4156322376       -1.5955563735        1.0428602816
 H         -1.8735498736        1.9316295506       -1.3092386402
 H          0.5635536281        1.5354323632       -1.3366726828
 H         -5.5313186261        0.1385491122        0.2880717071
 H         -4.3712209037       -0.3644094266        1.5446603661
 H         -4.5389051423       -1.3215866592        0.0425319179
