 xtb: 6.7.1 (edcfbbe)
          04092507313D

 38 37  0     0  0            999 V2000
    5.3104   -1.1593   -2.0605 C   0  0  0  0  0  0  0  0  0  0  0  0
    4.6208   -0.8368   -0.7483 C   0  0  0  0  0  0  0  0  0  0  0  0
    3.2071   -1.0648   -0.9099 O   0  0  0  0  0  0  0  0  0  0  0  0
    2.4935   -1.3822    0.1510 C   0  0  0  0  0  0  0  0  0  0  0  0
    2.9440   -1.5223    1.2654 O   0  0  0  0  0  0  0  0  0  0  0  0
    1.0296   -1.5789   -0.2036 C   0  0  0  0  0  0  0  0  0  0  0  0
    0.4861   -0.3583   -0.9470 C   0  0  0  0  0  0  0  0  0  0  0  0
    1.0695   -0.1922   -1.8569 H   0  0  0  0  0  0  0  0  0  0  0  0
    0.5377    0.8878   -0.0870 C   0  0  0  0  0  0  0  0  0  0  0  0
   -0.4546    1.5367    0.1799 O   0  0  0  0  0  0  0  0  0  0  0  0
    1.7462    1.1538    0.3247 O   0  0  0  0  0  0  0  0  0  0  0  0
    1.9377    2.2821    1.2081 C   0  0  0  0  0  0  0  0  0  0  0  0
    2.0997    3.5700    0.4188 C   0  0  0  0  0  0  0  0  0  0  0  0
   -1.2265   -0.5913   -1.5037 S   0  0  0  0  0  0  0  0  0  0  0  0
   -2.3390   -0.1862    0.2793 P   0  0  0  0  0  0  0  0  0  0  0  0
   -1.5852   -0.4014    2.0788 S   0  0  0  0  0  0  0  0  0  0  0  0
   -3.2582    1.0892   -0.0063 O   0  0  0  0  0  0  0  0  0  0  0  0
   -3.0375    2.4511    0.3550 C   0  0  0  0  0  0  0  0  0  0  0  0
   -3.4549   -1.3146    0.1387 O   0  0  0  0  0  0  0  0  0  0  0  0
   -4.2970   -1.4624   -1.0169 C   0  0  0  0  0  0  0  0  0  0  0  0
    4.9095   -0.5372   -2.8547 H   0  0  0  0  0  0  0  0  0  0  0  0
    6.3742   -0.9713   -1.9607 H   0  0  0  0  0  0  0  0  0  0  0  0
    5.1558   -2.2025   -2.3199 H   0  0  0  0  0  0  0  0  0  0  0  0
    4.7545    0.2134   -0.4734 H   0  0  0  0  0  0  0  0  0  0  0  0
    4.9832   -1.4639    0.0717 H   0  0  0  0  0  0  0  0  0  0  0  0
    0.4725   -1.7561    0.7194 H   0  0  0  0  0  0  0  0  0  0  0  0
    0.9402   -2.4523   -0.8516 H   0  0  0  0  0  0  0  0  0  0  0  0
    1.0819    2.3362    1.8866 H   0  0  0  0  0  0  0  0  0  0  0  0
    2.8403    2.0313    1.7659 H   0  0  0  0  0  0  0  0  0  0  0  0
    2.9232    3.4798   -0.2840 H   0  0  0  0  0  0  0  0  0  0  0  0
    1.1868    3.7938   -0.1278 H   0  0  0  0  0  0  0  0  0  0  0  0
    2.3049    4.3824    1.1078 H   0  0  0  0  0  0  0  0  0  0  0  0
   -4.0280    2.8981    0.4113 H   0  0  0  0  0  0  0  0  0  0  0  0
   -2.4330    2.9409   -0.4058 H   0  0  0  0  0  0  0  0  0  0  0  0
   -2.5344    2.5121    1.3194 H   0  0  0  0  0  0  0  0  0  0  0  0
   -4.9410   -0.5913   -1.1210 H   0  0  0  0  0  0  0  0  0  0  0  0
   -4.8845   -2.3570   -0.8266 H   0  0  0  0  0  0  0  0  0  0  0  0
   -3.6857   -1.5866   -1.9112 H   0  0  0  0  0  0  0  0  0  0  0  0
  1  2  1  0  0  0  0
  2  3  1  0  0  0  0
  3  4  1  0  0  0  0
  4  5  2  0  0  0  0
  4  6  1  0  0  0  0
  6  7  1  0  0  0  0
  7  8  1  0  0  0  0
  7  9  1  0  0  0  0
  9 10  2  0  0  0  0
  9 11  4  0  0  0  0
 11 12  1  0  0  0  0
 12 13  1  0  0  0  0
  7 14  1  0  0  0  0
 14 15  1  0  0  0  0
 15 16  2  0  0  0  0
 15 17  2  0  0  0  0
 17 18  1  0  0  0  0
 15 19  1  0  0  0  0
 19 20  1  0  0  0  0
  1 21  1  0  0  0  0
  1 22  1  0  0  0  0
  1 23  1  0  0  0  0
  2 24  1  0  0  0  0
  2 25  1  0  0  0  0
  6 26  1  0  0  0  0
  6 27  1  0  0  0  0
 12 28  1  0  0  0  0
 12 29  1  0  0  0  0
 13 30  1  0  0  0  0
 13 31  1  0  0  0  0
 13 32  1  0  0  0  0
 18 33  1  0  0  0  0
 18 34  1  0  0  0  0
 18 35  1  0  0  0  0
 20 36  1  0  0  0  0
 20 37  1  0  0  0  0
 20 38  1  0  0  0  0
M  END
