 xtb: 6.7.1 (edcfbbe)
          04092507313D

 38 37  0     0  0            999 V2000
    4.8478   -3.7479   -1.5980 C   0  0  0  0  0  0  0  0  0  0  0  0
    4.2106   -2.6345   -0.7908 C   0  0  0  0  0  0  0  0  0  0  0  0
    3.1806   -2.0316   -1.6011 O   0  0  0  0  0  0  0  0  0  0  0  0
    2.3899   -1.1484   -1.0381 C   0  0  0  0  0  0  0  0  0  0  0  0
    2.4652   -0.8047    0.1249 O   0  0  0  0  0  0  0  0  0  0  0  0
    1.3732   -0.5892   -2.0100 C   0  0  0  0  0  0  0  0  0  0  0  0
    0.3137    0.1923   -1.2440 C   0  0  0  0  0  0  0  0  0  0  0  0
   -0.3159    0.7652   -1.9330 H   0  0  0  0  0  0  0  0  0  0  0  0
    0.9883    1.1864   -0.3139 C   0  0  0  0  0  0  0  0  0  0  0  0
    1.8680    1.9219   -0.7055 O   0  0  0  0  0  0  0  0  0  0  0  0
    0.4820    1.2103    0.9007 O   0  0  0  0  0  0  0  0  0  0  0  0
    1.0814    2.1375    1.8299 C   0  0  0  0  0  0  0  0  0  0  0  0
    0.6541    1.7777    3.2376 C   0  0  0  0  0  0  0  0  0  0  0  0
   -0.7715   -0.9543   -0.3362 S   0  0  0  0  0  0  0  0  0  0  0  0
   -2.2010    0.4589    0.3556 P   0  0  0  0  0  0  0  0  0  0  0  0
   -2.2447    2.1955   -0.5486 S   0  0  0  0  0  0  0  0  0  0  0  0
   -3.5673   -0.3703    0.2299 O   0  0  0  0  0  0  0  0  0  0  0  0
   -4.1221   -0.6947   -1.0495 C   0  0  0  0  0  0  0  0  0  0  0  0
   -2.0949    0.5643    1.9263 O   0  0  0  0  0  0  0  0  0  0  0  0
   -2.0999   -0.6099    2.7636 C   0  0  0  0  0  0  0  0  0  0  0  0
    5.6325   -4.2123   -1.0103 H   0  0  0  0  0  0  0  0  0  0  0  0
    4.1028   -4.4943   -1.8560 H   0  0  0  0  0  0  0  0  0  0  0  0
    5.2738   -3.3465   -2.5123 H   0  0  0  0  0  0  0  0  0  0  0  0
    4.9346   -1.8579   -0.5255 H   0  0  0  0  0  0  0  0  0  0  0  0
    3.7505   -3.0059    0.1299 H   0  0  0  0  0  0  0  0  0  0  0  0
    0.9317   -1.3983   -2.5906 H   0  0  0  0  0  0  0  0  0  0  0  0
    1.8996    0.0874   -2.6872 H   0  0  0  0  0  0  0  0  0  0  0  0
    2.1663    2.0710    1.7012 H   0  0  0  0  0  0  0  0  0  0  0  0
    0.7547    3.1440    1.5493 H   0  0  0  0  0  0  0  0  0  0  0  0
    1.1400    2.4525    3.9344 H   0  0  0  0  0  0  0  0  0  0  0  0
   -0.4230    1.8758    3.3339 H   0  0  0  0  0  0  0  0  0  0  0  0
    0.9454    0.7559    3.4631 H   0  0  0  0  0  0  0  0  0  0  0  0
   -4.1789    0.2002   -1.6711 H   0  0  0  0  0  0  0  0  0  0  0  0
   -5.1181   -1.0798   -0.8468 H   0  0  0  0  0  0  0  0  0  0  0  0
   -3.5079   -1.4512   -1.5376 H   0  0  0  0  0  0  0  0  0  0  0  0
   -1.2469   -1.2419    2.5168 H   0  0  0  0  0  0  0  0  0  0  0  0
   -3.0275   -1.1615    2.6252 H   0  0  0  0  0  0  0  0  0  0  0  0
   -2.0201   -0.2372    3.7813 H   0  0  0  0  0  0  0  0  0  0  0  0
  1  2  1  0  0  0  0
  2  3  1  0  0  0  0
  3  4  4  0  0  0  0
  4  5  2  0  0  0  0
  4  6  1  0  0  0  0
  6  7  1  0  0  0  0
  7  8  1  0  0  0  0
  7  9  1  0  0  0  0
  9 10  2  0  0  0  0
  9 11  1  0  0  0  0
 11 12  1  0  0  0  0
 12 13  1  0  0  0  0
  7 14  1  0  0  0  0
 14 15  1  0  0  0  0
 15 16  2  0  0  0  0
 15 17  1  0  0  0  0
 17 18  1  0  0  0  0
 15 19  2  0  0  0  0
 19 20  1  0  0  0  0
  1 21  1  0  0  0  0
  1 22  1  0  0  0  0
  1 23  1  0  0  0  0
  2 24  1  0  0  0  0
  2 25  1  0  0  0  0
  6 26  1  0  0  0  0
  6 27  1  0  0  0  0
 12 28  1  0  0  0  0
 12 29  1  0  0  0  0
 13 30  1  0  0  0  0
 13 31  1  0  0  0  0
 13 32  1  0  0  0  0
 18 33  1  0  0  0  0
 18 34  1  0  0  0  0
 18 35  1  0  0  0  0
 20 36  1  0  0  0  0
 20 37  1  0  0  0  0
 20 38  1  0  0  0  0
M  END
