  24
 
 C          4.5050427550       -0.1330681749       -0.3127732868
 N          3.0690598659       -0.1574335889       -0.4867728741
 C          2.6128924582       -0.5840815637       -1.7890600376
 C          2.2629154522        0.1847376809        0.5172327779
 O          2.6627734521        0.5520632056        1.6247252670
 C          0.7805110479        0.1104610078        0.2722458270
 C          0.0767696821        1.2660727485       -0.0616141272
 C         -1.2973709203        1.2290885409       -0.1833684419
 C         -1.9672779513        0.0281100901        0.0408431164
 C         -1.2746977940       -1.1308988110        0.3852554430
 C          0.0995125211       -1.0841864255        0.5014128427
 N         -3.3861671322       -0.0134402440       -0.0751793429
 O         -3.9572145389       -1.0709763497        0.1396044331
 O         -3.9755915349        1.0105368761       -0.3828997884
 H          4.9566764050        0.5409455496       -1.0408230980
 H          4.9133857456       -1.1349741241       -0.4473865400
 H          4.7243323655        0.2167406705        0.6940906957
 H          2.9047183928       -1.6211379671       -1.9622079886
 H          3.0738304674        0.0400123768       -2.5553898912
 H          1.5328245298       -0.4992515747       -1.8627710618
 H          0.6102631559        2.1893069451       -0.2215591558
 H         -1.8639290290        2.1089620202       -0.4447042569
 H         -1.8242680504       -2.0432436642        0.5557290565
 H          0.6493297624       -1.9708875566        0.7734297068
          24
        -42.34285541
 C          4.5038298068       -0.2604168026       -0.1247640211
 N          3.0721534233       -0.3713683137       -0.3011664147
 C          2.6442064808       -1.4100384505       -1.2096087105
 C          2.2503080375        0.4603635099        0.3391508649
 O          2.6373664011        1.3726689588        1.0742472441
 C          0.7721025999        0.2539247029        0.1625384404
 C          0.0235736217        1.2226175487       -0.5025449602
 C         -1.3488275017        1.1030391783       -0.5851574058
 C         -1.9725587194        0.0126234540        0.0173068927
 C         -1.2360556881       -0.9540216694        0.6993265483
 C          0.1362242363       -0.8292718625        0.7690071318
 N         -3.3896937902       -0.1114191711       -0.0567299489
 O         -3.9196284442       -1.0662884270        0.4889903251
 O         -4.0184463395        0.7429632248       -0.6610937350
 H          4.9809512367       -0.0088695593       -1.0722743021
 H          4.9046602729       -1.2058967572        0.2402480715
 H          4.7027917561        0.5257472076        0.6005524776
 H          1.5841448456       -1.3189453443       -1.4264566898
 H          2.8419798587       -2.3919071278       -0.7763665893
 H          3.2056496628       -1.3217969449       -2.1401700637
 H          0.5243091017        2.0668241574       -0.9489624743
 H         -1.9486512856        1.8366839946       -1.1003092669
 H         -1.7514785463       -1.7822542427        1.1596398740
 H          0.7182297015       -1.5667977617        1.2979235170
