10
 xtb: 6.7.1 (edcfbbe)
C            1.86942310914609        0.28342132561409       -0.00469393503450
C            0.57695974855133       -0.52212865411414        0.01062630183436
C           -0.65504032994445        0.33003433072162       -0.01609694229634
O           -1.79066012342771       -0.11598085474255        0.01250036454352
H            2.73766330263506       -0.37982368266175        0.01418035007601
H            1.93005741550869        0.94404397127240        0.86577926620476
H            1.93592370425079        0.90099484041590       -0.90583737170671
H            0.51453608971640       -1.20211290068896       -0.84990609836231
H            0.50824658512800       -1.16304597530769        0.89973526240798
H           -0.49620767249748        1.42871288735182       -0.06628507597689
