 xtb: 6.7.1 (edcfbbe)
          04092505213D

 41 40  0     0  0            999 V2000
    1.3823    0.5385   -2.7593 C   0  0  0  0  0  0  0  0  0  0  0  0
    2.4289    0.8806   -1.7173 C   0  0  0  0  0  0  0  0  0  0  0  0
    2.7967   -0.2857   -0.9594 O   0  0  0  0  0  0  0  0  0  0  0  0
    2.2207   -0.6418    0.4768 P   0  0  0  0  0  0  0  0  0  0  0  0
    2.3197    0.7874    1.8243 S   0  0  0  0  0  0  0  0  0  0  0  0
    3.0522   -1.9408    0.8325 O   0  0  0  0  0  0  0  0  0  0  0  0
    4.3121   -1.8869    1.5313 C   0  0  0  0  0  0  0  0  0  0  0  0
    5.4040   -1.2730    0.6807 C   0  0  0  0  0  0  0  0  0  0  0  0
    0.3551   -1.5543    0.1216 S   0  0  0  0  0  0  0  0  0  0  0  0
   -0.4994   -1.0688    1.6636 C   0  0  0  0  0  0  0  0  0  0  0  0
   -2.2578   -0.7449    1.3949 S   0  0  0  0  0  0  0  0  0  0  0  0
   -2.0624    0.7556   -0.0859 P   0  0  0  0  0  0  0  0  0  0  0  0
   -0.5960    2.0406    0.0339 S   0  0  0  0  0  0  0  0  0  0  0  0
   -3.5312    1.3510    0.1059 O   0  0  0  0  0  0  0  0  0  0  0  0
   -3.8616    2.6954   -0.2917 C   0  0  0  0  0  0  0  0  0  0  0  0
   -3.9237    2.8332   -1.8000 C   0  0  0  0  0  0  0  0  0  0  0  0
   -2.0416    0.0203   -1.4954 O   0  0  0  0  0  0  0  0  0  0  0  0
   -3.0582   -0.9381   -1.8783 C   0  0  0  0  0  0  0  0  0  0  0  0
   -2.4825   -2.3396   -1.9012 C   0  0  0  0  0  0  0  0  0  0  0  0
    0.4382    0.2795   -2.2840 H   0  0  0  0  0  0  0  0  0  0  0  0
    1.2246    1.4024   -3.3970 H   0  0  0  0  0  0  0  0  0  0  0  0
    1.7186   -0.3019   -3.3599 H   0  0  0  0  0  0  0  0  0  0  0  0
    2.0694    1.6593   -1.0363 H   0  0  0  0  0  0  0  0  0  0  0  0
    3.3579    1.2105   -2.1865 H   0  0  0  0  0  0  0  0  0  0  0  0
    4.1714   -1.3120    2.4522 H   0  0  0  0  0  0  0  0  0  0  0  0
    4.5211   -2.9303    1.7702 H   0  0  0  0  0  0  0  0  0  0  0  0
    6.3530   -1.3481    1.2023 H   0  0  0  0  0  0  0  0  0  0  0  0
    5.4709   -1.7886   -0.2736 H   0  0  0  0  0  0  0  0  0  0  0  0
    5.1822   -0.2223    0.4982 H   0  0  0  0  0  0  0  0  0  0  0  0
   -0.0121   -0.1706    2.0543 H   0  0  0  0  0  0  0  0  0  0  0  0
   -0.4487   -1.8857    2.3792 H   0  0  0  0  0  0  0  0  0  0  0  0
   -4.8306    2.8786    0.1746 H   0  0  0  0  0  0  0  0  0  0  0  0
   -3.1140    3.3768    0.1267 H   0  0  0  0  0  0  0  0  0  0  0  0
   -2.9415    2.6322   -2.2274 H   0  0  0  0  0  0  0  0  0  0  0  0
   -4.6431    2.1320   -2.2148 H   0  0  0  0  0  0  0  0  0  0  0  0
   -4.2195    3.8457   -2.0562 H   0  0  0  0  0  0  0  0  0  0  0  0
   -3.8976   -0.8657   -1.1809 H   0  0  0  0  0  0  0  0  0  0  0  0
   -3.3763   -0.6263   -2.8746 H   0  0  0  0  0  0  0  0  0  0  0  0
   -1.6117   -2.3754   -2.5493 H   0  0  0  0  0  0  0  0  0  0  0  0
   -2.1792   -2.6465   -0.9031 H   0  0  0  0  0  0  0  0  0  0  0  0
   -3.2371   -3.0257   -2.2719 H   0  0  0  0  0  0  0  0  0  0  0  0
  1  2  1  0  0  0  0
  2  3  1  0  0  0  0
  3  4  2  0  0  0  0
  4  5  2  0  0  0  0
  4  6  2  0  0  0  0
  6  7  1  0  0  0  0
  7  8  1  0  0  0  0
  4  9  1  0  0  0  0
  9 10  1  0  0  0  0
 10 11  1  0  0  0  0
 11 12  1  0  0  0  0
 12 13  2  0  0  0  0
 12 14  1  0  0  0  0
 14 15  1  0  0  0  0
 15 16  1  0  0  0  0
 12 17  2  0  0  0  0
 17 18  1  0  0  0  0
 18 19  1  0  0  0  0
  1 20  1  0  0  0  0
  1 21  1  0  0  0  0
  1 22  1  0  0  0  0
  2 23  1  0  0  0  0
  2 24  1  0  0  0  0
  7 25  1  0  0  0  0
  7 26  1  0  0  0  0
  8 27  1  0  0  0  0
  8 28  1  0  0  0  0
  8 29  1  0  0  0  0
 10 30  1  0  0  0  0
 10 31  1  0  0  0  0
 15 32  1  0  0  0  0
 15 33  1  0  0  0  0
 16 34  1  0  0  0  0
 16 35  1  0  0  0  0
 16 36  1  0  0  0  0
 18 37  1  0  0  0  0
 18 38  1  0  0  0  0
 19 39  1  0  0  0  0
 19 40  1  0  0  0  0
 19 41  1  0  0  0  0
M  END
