 xtb: 6.7.1 (edcfbbe)
          04092505213D

 41 40  0     0  0            999 V2000
    2.4725   -3.2039   -1.5683 C   0  0  0  0  0  0  0  0  0  0  0  0
    2.7593   -2.6382   -0.1921 C   0  0  0  0  0  0  0  0  0  0  0  0
    3.2781   -1.2880   -0.2843 O   0  0  0  0  0  0  0  0  0  0  0  0
    2.3813    0.0083   -0.1108 P   0  0  0  0  0  0  0  0  0  0  0  0
    3.4946    1.6111   -0.1922 S   0  0  0  0  0  0  0  0  0  0  0  0
    1.5265   -0.2181    1.2247 O   0  0  0  0  0  0  0  0  0  0  0  0
    2.0813    0.0767    2.5272 C   0  0  0  0  0  0  0  0  0  0  0  0
    1.7417    1.4876    2.9642 C   0  0  0  0  0  0  0  0  0  0  0  0
    0.8364   -0.1525   -1.5358 S   0  0  0  0  0  0  0  0  0  0  0  0
    0.1980    1.5295   -1.3340 C   0  0  0  0  0  0  0  0  0  0  0  0
   -0.7354    1.7559    0.1966 S   0  0  0  0  0  0  0  0  0  0  0  0
   -2.2833    0.3718   -0.2562 P   0  0  0  0  0  0  0  0  0  0  0  0
   -2.8633    0.3796   -2.1244 S   0  0  0  0  0  0  0  0  0  0  0  0
   -3.4509    0.7831    0.7284 O   0  0  0  0  0  0  0  0  0  0  0  0
   -3.5502    0.4086    2.1247 C   0  0  0  0  0  0  0  0  0  0  0  0
   -2.3309    0.8075    2.9274 C   0  0  0  0  0  0  0  0  0  0  0  0
   -1.7342   -1.0204    0.3016 O   0  0  0  0  0  0  0  0  0  0  0  0
   -1.7117   -2.2314   -0.4744 C   0  0  0  0  0  0  0  0  0  0  0  0
   -3.0445   -2.9475   -0.3861 C   0  0  0  0  0  0  0  0  0  0  0  0
    3.3659   -3.1511   -2.1841 H   0  0  0  0  0  0  0  0  0  0  0  0
    2.1660   -4.2405   -1.4699 H   0  0  0  0  0  0  0  0  0  0  0  0
    1.6793   -2.6412   -2.0568 H   0  0  0  0  0  0  0  0  0  0  0  0
    3.5528   -3.1974    0.3068 H   0  0  0  0  0  0  0  0  0  0  0  0
    1.8616   -2.6312    0.4311 H   0  0  0  0  0  0  0  0  0  0  0  0
    1.6276   -0.6637    3.1886 H   0  0  0  0  0  0  0  0  0  0  0  0
    3.1654   -0.0705    2.4959 H   0  0  0  0  0  0  0  0  0  0  0  0
    0.6683    1.6472    2.9239 H   0  0  0  0  0  0  0  0  0  0  0  0
    2.0938    1.6396    3.9793 H   0  0  0  0  0  0  0  0  0  0  0  0
    2.2227    2.2109    2.3098 H   0  0  0  0  0  0  0  0  0  0  0  0
   -0.4539    1.7149   -2.1878 H   0  0  0  0  0  0  0  0  0  0  0  0
    1.0327    2.2307   -1.3082 H   0  0  0  0  0  0  0  0  0  0  0  0
   -4.4452    0.9355    2.4589 H   0  0  0  0  0  0  0  0  0  0  0  0
   -3.7136   -0.6699    2.1763 H   0  0  0  0  0  0  0  0  0  0  0  0
   -2.1356    1.8718    2.8140 H   0  0  0  0  0  0  0  0  0  0  0  0
   -2.5049    0.5844    3.9756 H   0  0  0  0  0  0  0  0  0  0  0  0
   -1.4616    0.2501    2.5832 H   0  0  0  0  0  0  0  0  0  0  0  0
   -1.4722   -1.9883   -1.5138 H   0  0  0  0  0  0  0  0  0  0  0  0
   -0.9044   -2.8220   -0.0389 H   0  0  0  0  0  0  0  0  0  0  0  0
   -3.8278   -2.3152   -0.8022 H   0  0  0  0  0  0  0  0  0  0  0  0
   -2.9955   -3.8684   -0.9580 H   0  0  0  0  0  0  0  0  0  0  0  0
   -3.2863   -3.1786    0.6478 H   0  0  0  0  0  0  0  0  0  0  0  0
  1  2  1  0  0  0  0
  2  3  1  0  0  0  0
  3  4  2  0  0  0  0
  4  5  2  0  0  0  0
  4  6  1  0  0  0  0
  6  7  1  0  0  0  0
  7  8  1  0  0  0  0
  4  9  1  0  0  0  0
  9 10  1  0  0  0  0
 10 11  1  0  0  0  0
 11 12  1  0  0  0  0
 12 13  2  0  0  0  0
 12 14  2  0  0  0  0
 14 15  1  0  0  0  0
 15 16  1  0  0  0  0
 12 17  2  0  0  0  0
 17 18  1  0  0  0  0
 18 19  1  0  0  0  0
  1 20  1  0  0  0  0
  1 21  1  0  0  0  0
  1 22  1  0  0  0  0
  2 23  1  0  0  0  0
  2 24  1  0  0  0  0
  7 25  1  0  0  0  0
  7 26  1  0  0  0  0
  8 27  1  0  0  0  0
  8 28  1  0  0  0  0
  8 29  1  0  0  0  0
 10 30  1  0  0  0  0
 10 31  1  0  0  0  0
 15 32  1  0  0  0  0
 15 33  1  0  0  0  0
 16 34  1  0  0  0  0
 16 35  1  0  0  0  0
 16 36  1  0  0  0  0
 18 37  1  0  0  0  0
 18 38  1  0  0  0  0
 19 39  1  0  0  0  0
 19 40  1  0  0  0  0
 19 41  1  0  0  0  0
M  END
