 xtb: 6.7.1 (edcfbbe)
          04092505213D

 41 40  0     0  0            999 V2000
    2.4283   -0.2965   -3.0761 C   0  0  0  0  0  0  0  0  0  0  0  0
    2.7611    0.9097   -2.2251 C   0  0  0  0  0  0  0  0  0  0  0  0
    2.0823    0.8822   -0.9530 O   0  0  0  0  0  0  0  0  0  0  0  0
    2.3997   -0.2254    0.1375 P   0  0  0  0  0  0  0  0  0  0  0  0
    4.2437   -0.8769    0.2059 S   0  0  0  0  0  0  0  0  0  0  0  0
    1.3045   -1.3446   -0.1743 O   0  0  0  0  0  0  0  0  0  0  0  0
    1.4745   -2.6953    0.2886 C   0  0  0  0  0  0  0  0  0  0  0  0
    1.2379   -2.8140    1.7809 C   0  0  0  0  0  0  0  0  0  0  0  0
    1.7184    0.8044    1.8481 S   0  0  0  0  0  0  0  0  0  0  0  0
    0.0730    1.3387    1.2926 C   0  0  0  0  0  0  0  0  0  0  0  0
   -1.1948    0.0415    1.4494 S   0  0  0  0  0  0  0  0  0  0  0  0
   -2.1720    0.4560   -0.4006 P   0  0  0  0  0  0  0  0  0  0  0  0
   -1.1098    0.3900   -2.0380 S   0  0  0  0  0  0  0  0  0  0  0  0
   -2.7831    1.8963   -0.1877 O   0  0  0  0  0  0  0  0  0  0  0  0
   -3.7503    2.1923    0.8538 C   0  0  0  0  0  0  0  0  0  0  0  0
   -3.6272    3.6607    1.2038 C   0  0  0  0  0  0  0  0  0  0  0  0
   -3.4637   -0.4698   -0.3565 O   0  0  0  0  0  0  0  0  0  0  0  0
   -3.4704   -1.8224   -0.8485 C   0  0  0  0  0  0  0  0  0  0  0  0
   -2.5233   -2.7122   -0.0715 C   0  0  0  0  0  0  0  0  0  0  0  0
    2.8806   -0.1807   -4.0558 H   0  0  0  0  0  0  0  0  0  0  0  0
    2.8189   -1.1991   -2.6079 H   0  0  0  0  0  0  0  0  0  0  0  0
    1.3497   -0.3898   -3.1830 H   0  0  0  0  0  0  0  0  0  0  0  0
    2.4108    1.8350   -2.6845 H   0  0  0  0  0  0  0  0  0  0  0  0
    3.8378    0.9663   -2.0358 H   0  0  0  0  0  0  0  0  0  0  0  0
    0.7490   -3.2710   -0.2878 H   0  0  0  0  0  0  0  0  0  0  0  0
    2.4891   -3.0204    0.0352 H   0  0  0  0  0  0  0  0  0  0  0  0
    0.2604   -2.4190    2.0470 H   0  0  0  0  0  0  0  0  0  0  0  0
    1.2966   -3.8581    2.0705 H   0  0  0  0  0  0  0  0  0  0  0  0
    2.0013   -2.2534    2.3204 H   0  0  0  0  0  0  0  0  0  0  0  0
    0.1284    1.6529    0.2505 H   0  0  0  0  0  0  0  0  0  0  0  0
   -0.1892    2.1657    1.9475 H   0  0  0  0  0  0  0  0  0  0  0  0
   -4.7386    1.9559    0.4563 H   0  0  0  0  0  0  0  0  0  0  0  0
   -3.5465    1.5518    1.7167 H   0  0  0  0  0  0  0  0  0  0  0  0
   -2.6399    3.8763    1.6033 H   0  0  0  0  0  0  0  0  0  0  0  0
   -3.7835    4.2680    0.3168 H   0  0  0  0  0  0  0  0  0  0  0  0
   -4.3759    3.9126    1.9479 H   0  0  0  0  0  0  0  0  0  0  0  0
   -4.5092   -2.1352   -0.7336 H   0  0  0  0  0  0  0  0  0  0  0  0
   -3.2009   -1.8048   -1.9089 H   0  0  0  0  0  0  0  0  0  0  0  0
   -2.6280   -3.7372   -0.4121 H   0  0  0  0  0  0  0  0  0  0  0  0
   -1.4981   -2.3848   -0.2396 H   0  0  0  0  0  0  0  0  0  0  0  0
   -2.7400   -2.6597    0.9927 H   0  0  0  0  0  0  0  0  0  0  0  0
  1  2  1  0  0  0  0
  2  3  1  0  0  0  0
  3  4  2  0  0  0  0
  4  5  2  0  0  0  0
  4  6  2  0  0  0  0
  6  7  1  0  0  0  0
  7  8  1  0  0  0  0
  4  9  1  0  0  0  0
  9 10  1  0  0  0  0
 10 11  1  0  0  0  0
 11 12  1  0  0  0  0
 12 13  2  0  0  0  0
 12 14  2  0  0  0  0
 14 15  1  0  0  0  0
 15 16  1  0  0  0  0
 12 17  2  0  0  0  0
 17 18  1  0  0  0  0
 18 19  1  0  0  0  0
  1 20  1  0  0  0  0
  1 21  1  0  0  0  0
  1 22  1  0  0  0  0
  2 23  1  0  0  0  0
  2 24  1  0  0  0  0
  7 25  1  0  0  0  0
  7 26  1  0  0  0  0
  8 27  1  0  0  0  0
  8 28  1  0  0  0  0
  8 29  1  0  0  0  0
 10 30  1  0  0  0  0
 10 31  1  0  0  0  0
 15 32  1  0  0  0  0
 15 33  1  0  0  0  0
 16 34  1  0  0  0  0
 16 35  1  0  0  0  0
 16 36  1  0  0  0  0
 18 37  1  0  0  0  0
 18 38  1  0  0  0  0
 19 39  1  0  0  0  0
 19 40  1  0  0  0  0
 19 41  1  0  0  0  0
M  END
