 xtb: 6.7.1 (edcfbbe)
          04092505213D

 41 40  0     0  0            999 V2000
    1.9297   -0.0140   -2.8085 C   0  0  0  0  0  0  0  0  0  0  0  0
    2.2900   -1.1576   -1.8815 C   0  0  0  0  0  0  0  0  0  0  0  0
    1.4784   -1.1124   -0.6843 O   0  0  0  0  0  0  0  0  0  0  0  0
    2.0543   -0.6089    0.7059 P   0  0  0  0  0  0  0  0  0  0  0  0
    3.3035    0.9074    0.6792 S   0  0  0  0  0  0  0  0  0  0  0  0
    2.6881   -1.9553    1.2645 O   0  0  0  0  0  0  0  0  0  0  0  0
    3.4867   -1.9888    2.4659 C   0  0  0  0  0  0  0  0  0  0  0  0
    4.3817   -3.2099    2.4007 C   0  0  0  0  0  0  0  0  0  0  0  0
    0.2824   -0.3994    1.8169 S   0  0  0  0  0  0  0  0  0  0  0  0
   -0.0252    1.3534    1.4466 C   0  0  0  0  0  0  0  0  0  0  0  0
   -0.0455    1.7319   -0.3303 S   0  0  0  0  0  0  0  0  0  0  0  0
   -1.9679    1.0112   -0.8281 P   0  0  0  0  0  0  0  0  0  0  0  0
   -2.3871    0.9696   -2.7393 S   0  0  0  0  0  0  0  0  0  0  0  0
   -2.8265    1.9793    0.0875 O   0  0  0  0  0  0  0  0  0  0  0  0
   -4.2311    2.2084   -0.1542 C   0  0  0  0  0  0  0  0  0  0  0  0
   -5.0560    0.9565    0.0560 C   0  0  0  0  0  0  0  0  0  0  0  0
   -2.1358   -0.3799   -0.0737 O   0  0  0  0  0  0  0  0  0  0  0  0
   -1.8983   -1.6575   -0.6891 C   0  0  0  0  0  0  0  0  0  0  0  0
   -2.7065   -2.6906    0.0696 C   0  0  0  0  0  0  0  0  0  0  0  0
    2.4874   -0.1137   -3.7340 H   0  0  0  0  0  0  0  0  0  0  0  0
    0.8647   -0.0250   -3.0312 H   0  0  0  0  0  0  0  0  0  0  0  0
    2.1747    0.9398   -2.3452 H   0  0  0  0  0  0  0  0  0  0  0  0
    3.3458   -1.1128   -1.6013 H   0  0  0  0  0  0  0  0  0  0  0  0
    2.0698   -2.1254   -2.3349 H   0  0  0  0  0  0  0  0  0  0  0  0
    4.0716   -1.0644    2.5217 H   0  0  0  0  0  0  0  0  0  0  0  0
    2.8067   -2.0374    3.3199 H   0  0  0  0  0  0  0  0  0  0  0  0
    5.0582   -3.1356    1.5539 H   0  0  0  0  0  0  0  0  0  0  0  0
    4.9609   -3.2749    3.3160 H   0  0  0  0  0  0  0  0  0  0  0  0
    3.7777   -4.1059    2.2916 H   0  0  0  0  0  0  0  0  0  0  0  0
    0.7848    1.9526    1.8598 H   0  0  0  0  0  0  0  0  0  0  0  0
   -0.9816    1.6108    1.8930 H   0  0  0  0  0  0  0  0  0  0  0  0
   -4.4910    2.9923    0.5585 H   0  0  0  0  0  0  0  0  0  0  0  0
   -4.3475    2.5808   -1.1766 H   0  0  0  0  0  0  0  0  0  0  0  0
   -4.8555    0.5331    1.0368 H   0  0  0  0  0  0  0  0  0  0  0  0
   -6.1102    1.2034   -0.0237 H   0  0  0  0  0  0  0  0  0  0  0  0
   -4.8076    0.2198   -0.7068 H   0  0  0  0  0  0  0  0  0  0  0  0
   -2.1950   -1.5985   -1.7420 H   0  0  0  0  0  0  0  0  0  0  0  0
   -0.8284   -1.8756   -0.6318 H   0  0  0  0  0  0  0  0  0  0  0  0
   -2.4128   -2.6879    1.1156 H   0  0  0  0  0  0  0  0  0  0  0  0
   -3.7672   -2.4672   -0.0018 H   0  0  0  0  0  0  0  0  0  0  0  0
   -2.5175   -3.6709   -0.3553 H   0  0  0  0  0  0  0  0  0  0  0  0
  1  2  1  0  0  0  0
  2  3  1  0  0  0  0
  3  4  2  0  0  0  0
  4  5  2  0  0  0  0
  4  6  2  0  0  0  0
  6  7  1  0  0  0  0
  7  8  1  0  0  0  0
  4  9  1  0  0  0  0
  9 10  1  0  0  0  0
 10 11  1  0  0  0  0
 11 12  1  0  0  0  0
 12 13  2  0  0  0  0
 12 14  2  0  0  0  0
 14 15  1  0  0  0  0
 15 16  1  0  0  0  0
 12 17  2  0  0  0  0
 17 18  1  0  0  0  0
 18 19  1  0  0  0  0
  1 20  1  0  0  0  0
  1 21  1  0  0  0  0
  1 22  1  0  0  0  0
  2 23  1  0  0  0  0
  2 24  1  0  0  0  0
  7 25  1  0  0  0  0
  7 26  1  0  0  0  0
  8 27  1  0  0  0  0
  8 28  1  0  0  0  0
  8 29  1  0  0  0  0
 10 30  1  0  0  0  0
 10 31  1  0  0  0  0
 15 32  1  0  0  0  0
 15 33  1  0  0  0  0
 16 34  1  0  0  0  0
 16 35  1  0  0  0  0
 16 36  1  0  0  0  0
 18 37  1  0  0  0  0
 18 38  1  0  0  0  0
 19 39  1  0  0  0  0
 19 40  1  0  0  0  0
 19 41  1  0  0  0  0
M  END
