38
 xtb: 6.7.1 (edcfbbe)
C            5.50449194776528       -2.01839776861406       -1.42408193968278
C            4.75037253885000       -0.88904318332797       -0.76304968338643
O            3.40435255560578       -1.32123439483626       -0.36843111537428
C            2.45953958377628       -1.29791817936905       -1.31649541553560
O            2.64238319761266       -0.95335649286211       -2.47003678579396
C            1.11562798202881       -1.73080807427892       -0.77357499055392
C            0.17397625094002       -0.50795866515946       -0.70712048777409
H            0.08124102469417       -0.05842139496338       -1.69842187980597
C            0.79471105181622        0.53584194821521        0.20742287302598
O            1.60039078371123        1.34244794419711       -0.22419067833331
O            0.43252415256050        0.41484962463733        1.47828180064554
C            1.05209057063509        1.33457729475742        2.44115625722267
C            2.39627255742148        0.80636831743572        2.88122310560548
S           -1.48679051309753       -1.13869739710015       -0.19459680872019
P           -2.57675222069491        0.67413783201888        0.00156877851428
S           -2.01590747116907        2.11766241221009       -1.16722072516172
O           -4.08429389883583        0.11877229419704       -0.12046048980043
C           -4.63029082746785       -0.23863970437995       -1.42234985506270
O           -2.54751978796483        1.12961106094069        1.53927426723614
C           -2.81606081839569        0.18986178446400        2.62257167248850
H            5.02941005880310       -2.32273965054726       -2.36020240724547
H            6.52115623725149       -1.68069505050321       -1.64840094889908
H            5.56990621123320       -2.88335774165528       -0.75792497161840
H            4.65655290397180       -0.01440555592304       -1.41126649993370
H            5.21276331276734       -0.59366123077288        0.18026846240934
H            1.22662139626044       -2.18293498575181        0.21399913039116
H            0.69825246854552       -2.46449501215997       -1.46951503129078
H            1.11999613951724        2.32246578629673        1.97962540089769
H            0.33522807841813        1.36394647805916        3.26383917479772
H            3.09905511495314        0.75692931638337        2.04485419233266
H            2.80971831153523        1.47903259313428        3.63912935146521
H            2.29594780471577       -0.18906243084600        3.32301597602423
H           -4.67033245023946        0.64581711326920       -2.06372234839939
H           -5.63639507003728       -0.60878159738560       -1.22431308013175
H           -4.02646406116649       -1.02284461103981       -1.88793574897642
H           -2.05558582466180       -0.59499087909994        2.63426948255705
H           -3.81402831703880       -0.24138608860068        2.51334196673433
H           -2.75955297441637        0.78034219841728        3.53684920598792
