 xtb: 6.7.1 (edcfbbe)
          04092505203D

 41 40  0     0  0            999 V2000
    1.8336   -1.2512   -3.0290 C   0  0  0  0  0  0  0  0  0  0  0  0
    2.7918   -0.3764   -2.2462 C   0  0  0  0  0  0  0  0  0  0  0  0
    2.0687    0.4132   -1.2622 O   0  0  0  0  0  0  0  0  0  0  0  0
    2.1221    0.1477    0.2912 P   0  0  0  0  0  0  0  0  0  0  0  0
    1.0287    1.4918    1.2125 S   0  0  0  0  0  0  0  0  0  0  0  0
    3.6902    0.1592    0.5476 O   0  0  0  0  0  0  0  0  0  0  0  0
    4.3537   -0.3926    1.7003 C   0  0  0  0  0  0  0  0  0  0  0  0
    3.8268    0.1693    3.0038 C   0  0  0  0  0  0  0  0  0  0  0  0
    1.6090   -1.8867    0.6414 S   0  0  0  0  0  0  0  0  0  0  0  0
   -0.1781   -1.6786    0.7688 C   0  0  0  0  0  0  0  0  0  0  0  0
   -0.9087   -1.0061   -0.7588 S   0  0  0  0  0  0  0  0  0  0  0  0
   -2.1684    0.5103    0.0344 P   0  0  0  0  0  0  0  0  0  0  0  0
   -2.4005    0.5418    1.9773 S   0  0  0  0  0  0  0  0  0  0  0  0
   -3.5366    0.3154   -0.7619 O   0  0  0  0  0  0  0  0  0  0  0  0
   -4.5909   -0.5457   -0.3040 C   0  0  0  0  0  0  0  0  0  0  0  0
   -4.1885   -2.0070   -0.3023 C   0  0  0  0  0  0  0  0  0  0  0  0
   -1.6766    1.8866   -0.5546 O   0  0  0  0  0  0  0  0  0  0  0  0
   -1.0200    2.1052   -1.8237 C   0  0  0  0  0  0  0  0  0  0  0  0
   -1.8003    1.5445   -2.9927 C   0  0  0  0  0  0  0  0  0  0  0  0
    2.3867   -1.7680   -3.8065 H   0  0  0  0  0  0  0  0  0  0  0  0
    1.3619   -1.9844   -2.3793 H   0  0  0  0  0  0  0  0  0  0  0  0
    1.0564   -0.6440   -3.4840 H   0  0  0  0  0  0  0  0  0  0  0  0
    3.2749    0.3611   -2.8887 H   0  0  0  0  0  0  0  0  0  0  0  0
    3.5512   -0.9723   -1.7366 H   0  0  0  0  0  0  0  0  0  0  0  0
    4.2386   -1.4797    1.6732 H   0  0  0  0  0  0  0  0  0  0  0  0
    5.4002   -0.1243    1.5451 H   0  0  0  0  0  0  0  0  0  0  0  0
    2.7836   -0.1126    3.1422 H   0  0  0  0  0  0  0  0  0  0  0  0
    4.4111   -0.2226    3.8300 H   0  0  0  0  0  0  0  0  0  0  0  0
    3.8876    1.2552    3.0017 H   0  0  0  0  0  0  0  0  0  0  0  0
   -0.4231   -1.0005    1.5914 H   0  0  0  0  0  0  0  0  0  0  0  0
   -0.5807   -2.6730    0.9457 H   0  0  0  0  0  0  0  0  0  0  0  0
   -4.8821   -0.2283    0.7024 H   0  0  0  0  0  0  0  0  0  0  0  0
   -5.4048   -0.3524   -1.0042 H   0  0  0  0  0  0  0  0  0  0  0  0
   -3.4354   -2.1802    0.4652 H   0  0  0  0  0  0  0  0  0  0  0  0
   -5.0591   -2.6158   -0.0807 H   0  0  0  0  0  0  0  0  0  0  0  0
   -3.7844   -2.2917   -1.2703 H   0  0  0  0  0  0  0  0  0  0  0  0
   -0.9369    3.1922   -1.8733 H   0  0  0  0  0  0  0  0  0  0  0  0
   -0.0170    1.6708   -1.7660 H   0  0  0  0  0  0  0  0  0  0  0  0
   -2.8095    1.9480   -2.9958 H   0  0  0  0  0  0  0  0  0  0  0  0
   -1.2987    1.8181   -3.9160 H   0  0  0  0  0  0  0  0  0  0  0  0
   -1.8557    0.4590   -2.9244 H   0  0  0  0  0  0  0  0  0  0  0  0
  1  2  1  0  0  0  0
  2  3  1  0  0  0  0
  3  4  2  0  0  0  0
  4  5  2  0  0  0  0
  4  6  2  0  0  0  0
  6  7  1  0  0  0  0
  7  8  1  0  0  0  0
  4  9  1  0  0  0  0
  9 10  1  0  0  0  0
 10 11  1  0  0  0  0
 11 12  1  0  0  0  0
 12 13  2  0  0  0  0
 12 14  2  0  0  0  0
 14 15  1  0  0  0  0
 15 16  1  0  0  0  0
 12 17  2  0  0  0  0
 17 18  1  0  0  0  0
 18 19  1  0  0  0  0
  1 20  1  0  0  0  0
  1 21  1  0  0  0  0
  1 22  1  0  0  0  0
  2 23  1  0  0  0  0
  2 24  1  0  0  0  0
  7 25  1  0  0  0  0
  7 26  1  0  0  0  0
  8 27  1  0  0  0  0
  8 28  1  0  0  0  0
  8 29  1  0  0  0  0
 10 30  1  0  0  0  0
 10 31  1  0  0  0  0
 15 32  1  0  0  0  0
 15 33  1  0  0  0  0
 16 34  1  0  0  0  0
 16 35  1  0  0  0  0
 16 36  1  0  0  0  0
 18 37  1  0  0  0  0
 18 38  1  0  0  0  0
 19 39  1  0  0  0  0
 19 40  1  0  0  0  0
 19 41  1  0  0  0  0
M  END
