 xtb: 6.7.1 (edcfbbe)
          04032519423D

 20 20  0     0  0            999 V2000
    0.8486    1.3901   -0.5829 C   0  0  0  0  0  0  0  0  0  0  0  0
    1.5966    0.1595   -0.0524 C   0  0  0  0  0  0  0  0  0  0  0  0
    2.5541    0.0978   -0.5871 H   0  0  0  0  0  0  0  0  0  0  0  0
    0.7664   -1.1153   -0.3412 C   0  0  0  0  0  0  0  0  0  0  0  0
    1.1964   -1.9641    0.2116 H   0  0  0  0  0  0  0  0  0  0  0  0
   -0.6731   -0.9138    0.1657 C   0  0  0  0  0  0  0  0  0  0  0  0
   -1.2897   -1.7643   -0.1412 H   0  0  0  0  0  0  0  0  0  0  0  0
   -1.2615    0.3685   -0.4577 C   0  0  0  0  0  0  0  0  0  0  0  0
   -1.2775    0.2743   -1.5546 H   0  0  0  0  0  0  0  0  0  0  0  0
   -0.4661    1.4796   -0.0798 O   0  0  0  0  0  0  0  0  0  0  0  0
   -2.5565    0.5948   -0.0470 O   0  0  0  0  0  0  0  0  0  0  0  0
   -0.7400   -0.8472    1.5659 O   0  0  0  0  0  0  0  0  0  0  0  0
    0.7020   -1.3879   -1.7189 O   0  0  0  0  0  0  0  0  0  0  0  0
    1.8094    0.3317    1.3318 O   0  0  0  0  0  0  0  0  0  0  0  0
    0.8271    1.3463   -1.6795 H   0  0  0  0  0  0  0  0  0  0  0  0
    1.3468    2.2996   -0.2472 H   0  0  0  0  0  0  0  0  0  0  0  0
   -2.5911    0.5299    0.9233 H   0  0  0  0  0  0  0  0  0  0  0  0
   -0.1284   -0.1477    1.8635 H   0  0  0  0  0  0  0  0  0  0  0  0
    1.5413   -1.7634   -2.0231 H   0  0  0  0  0  0  0  0  0  0  0  0
    2.4660   -0.3030    1.6516 H   0  0  0  0  0  0  0  0  0  0  0  0
  1  2  1  0  0  0  0
  2  3  1  0  0  0  0
  2  4  1  0  0  0  0
  4  5  1  0  0  0  0
  4  6  1  0  0  0  0
  6  7  1  0  0  0  0
  6  8  1  0  0  0  0
  8  9  1  0  0  0  0
  1 10  1  0  0  0  0
  8 10  1  0  0  0  0
  8 11  1  0  0  0  0
  6 12  1  0  0  0  0
  4 13  1  0  0  0  0
  2 14  1  0  0  0  0
  1 15  1  0  0  0  0
  1 16  1  0  0  0  0
 11 17  1  0  0  0  0
 12 18  1  0  0  0  0
 13 19  1  0  0  0  0
 14 20  1  0  0  0  0
M  END
