41
 xtb: 6.7.1 (edcfbbe)
C            5.72546326842942       -0.07830907940985       -0.36909622818632
C            4.59106680430675       -1.04193726166782       -0.12976342344331
O            3.45831508540775       -0.31554694089627        0.46796846920544
P            2.10878058987317       -0.04221185411745       -0.36820163839834
S            2.29903068169595        0.50306060120380       -2.22824127619279
O            1.35187541390943        0.97206830514212        0.61538867500888
C            1.42583688420446        2.43088749476756        0.44551058841782
C            2.74978031108517        2.97456323930915        0.92259388737582
S            1.10448585302161       -1.87555843646638       -0.02789790538755
C           -0.27155163884526       -1.80354117135205       -1.25930700040678
S           -1.94981735535433       -1.92614916163002       -0.53533357728364
P           -2.37393193248099        0.10941370446993       -0.07071860498391
S           -1.96814103896399        1.39621687982063       -1.46673767661663
O           -1.59967979121116        0.46403395816429        1.28714465151515
C           -1.83719125766541       -0.28097900872607        2.53590357443411
C           -0.62652326592417       -0.09143373005110        3.41243839412528
O           -3.89383668428119       -0.04229128270593        0.43128107253787
C           -5.05730212639321        0.22671285952462       -0.42899331369592
C           -5.34431888139349       -0.91664164095229       -1.36892161322470
H            5.44602710673368        0.67817473391795       -1.10768294676547
H            6.01544320379354        0.41904660494078        0.56093288862608
H            6.59041247449205       -0.63180394417256       -0.74889025005075
H            4.85319810526692       -1.81171689445962        0.59980173444832
H            4.26800440450690       -1.52740543658975       -1.05572664955812
H            1.23654892198030        2.66463878162046       -0.60624187689183
H            0.59252082565533        2.79887767822894        1.04790497778260
H            2.94087996902862        2.68395479385853        1.95963976280287
H            3.57678079369186        2.62555356648170        0.29636305172656
H            2.71984680720693        4.06779499779122        0.86949042376963
H           -0.17269879616704       -2.67460181747600       -1.91127778865108
H           -0.18206980760155       -0.89516780305201       -1.86540526401595
H           -2.74329508279389        0.12850959619757        2.99088977563614
H           -1.99798585363972       -1.33727273271311        2.29583487621457
H           -0.43436935334840        0.97086800390938        3.58938832142174
H           -0.81209255798837       -0.57339423294280        4.37740868751142
H            0.26003124584228       -0.54624580351614        2.96233155237363
H           -5.86979765304796        0.37470431205358        0.28486394114603
H           -4.87549856075161        1.16345679233022       -0.96394429370901
H           -5.45929583540046       -1.85647166884222       -0.82114095310817
H           -6.28289195715305       -0.70612392754747       -1.89209634742180
H           -4.55666858258870       -1.03243632776671       -2.11864626538281
