 xtb: 6.7.1 (edcfbbe)
          04092514023D

 41 40  0     0  0            999 V2000
    1.3027   -0.2578   -3.1541 C   0  0  0  0  0  0  0  0  0  0  0  0
    2.4100    0.3807   -2.3383 C   0  0  0  0  0  0  0  0  0  0  0  0
    2.9409   -0.5614   -1.3906 O   0  0  0  0  0  0  0  0  0  0  0  0
    2.6814   -0.4509    0.1674 P   0  0  0  0  0  0  0  0  0  0  0  0
    2.8913    1.3582    0.9077 S   0  0  0  0  0  0  0  0  0  0  0  0
    3.7602   -1.5406    0.5533 O   0  0  0  0  0  0  0  0  0  0  0  0
    3.7920   -2.3013    1.7751 C   0  0  0  0  0  0  0  0  0  0  0  0
    3.9556   -1.4321    3.0062 C   0  0  0  0  0  0  0  0  0  0  0  0
    0.7951   -1.3668    0.5348 S   0  0  0  0  0  0  0  0  0  0  0  0
    0.0537   -0.1313    1.6681 C   0  0  0  0  0  0  0  0  0  0  0  0
   -1.7418   -0.1871    1.6068 S   0  0  0  0  0  0  0  0  0  0  0  0
   -2.0159    0.6703   -0.3308 P   0  0  0  0  0  0  0  0  0  0  0  0
   -0.7525    2.0894   -0.7983 S   0  0  0  0  0  0  0  0  0  0  0  0
   -3.5556    1.0609   -0.3094 O   0  0  0  0  0  0  0  0  0  0  0  0
   -4.0632    2.1692    0.4639 C   0  0  0  0  0  0  0  0  0  0  0  0
   -5.4310    2.5312   -0.0815 C   0  0  0  0  0  0  0  0  0  0  0  0
   -1.9741   -0.5129   -1.3667 O   0  0  0  0  0  0  0  0  0  0  0  0
   -2.8295   -1.6833   -1.2859 C   0  0  0  0  0  0  0  0  0  0  0  0
   -3.9644   -1.5856   -2.2845 C   0  0  0  0  0  0  0  0  0  0  0  0
    0.9597    0.4538   -3.8986 H   0  0  0  0  0  0  0  0  0  0  0  0
    1.6724   -1.1523   -3.6470 H   0  0  0  0  0  0  0  0  0  0  0  0
    0.4621   -0.5240   -2.5161 H   0  0  0  0  0  0  0  0  0  0  0  0
    2.0493    1.2715   -1.8107 H   0  0  0  0  0  0  0  0  0  0  0  0
    3.2539    0.6612   -2.9721 H   0  0  0  0  0  0  0  0  0  0  0  0
    2.8774   -2.8985    1.8362 H   0  0  0  0  0  0  0  0  0  0  0  0
    4.6521   -2.9602    1.6412 H   0  0  0  0  0  0  0  0  0  0  0  0
    3.0888   -0.7853    3.1341 H   0  0  0  0  0  0  0  0  0  0  0  0
    4.0599   -2.0662    3.8813 H   0  0  0  0  0  0  0  0  0  0  0  0
    4.8375   -0.8032    2.9114 H   0  0  0  0  0  0  0  0  0  0  0  0
    0.4097    0.8627    1.3820 H   0  0  0  0  0  0  0  0  0  0  0  0
    0.3301   -0.3686    2.6924 H   0  0  0  0  0  0  0  0  0  0  0  0
   -4.1210    1.8585    1.5104 H   0  0  0  0  0  0  0  0  0  0  0  0
   -3.3639    3.0068    0.3756 H   0  0  0  0  0  0  0  0  0  0  0  0
   -5.8235    3.3759    0.4755 H   0  0  0  0  0  0  0  0  0  0  0  0
   -5.3557    2.8013   -1.1313 H   0  0  0  0  0  0  0  0  0  0  0  0
   -6.1103    1.6898    0.0195 H   0  0  0  0  0  0  0  0  0  0  0  0
   -2.1685   -2.5218   -1.5130 H   0  0  0  0  0  0  0  0  0  0  0  0
   -3.2063   -1.7776   -0.2642 H   0  0  0  0  0  0  0  0  0  0  0  0
   -4.5385   -2.5067   -2.2540 H   0  0  0  0  0  0  0  0  0  0  0  0
   -4.6139   -0.7493   -2.0404 H   0  0  0  0  0  0  0  0  0  0  0  0
   -3.5705   -1.4434   -3.2871 H   0  0  0  0  0  0  0  0  0  0  0  0
  1  2  1  0  0  0  0
  2  3  1  0  0  0  0
  3  4  2  0  0  0  0
  4  5  2  0  0  0  0
  4  6  2  0  0  0  0
  6  7  1  0  0  0  0
  7  8  1  0  0  0  0
  4  9  1  0  0  0  0
  9 10  1  0  0  0  0
 10 11  1  0  0  0  0
 11 12  1  0  0  0  0
 12 13  2  0  0  0  0
 12 14  2  0  0  0  0
 14 15  1  0  0  0  0
 15 16  1  0  0  0  0
 12 17  2  0  0  0  0
 17 18  1  0  0  0  0
 18 19  1  0  0  0  0
  1 20  1  0  0  0  0
  1 21  1  0  0  0  0
  1 22  1  0  0  0  0
  2 23  1  0  0  0  0
  2 24  1  0  0  0  0
  7 25  1  0  0  0  0
  7 26  1  0  0  0  0
  8 27  1  0  0  0  0
  8 28  1  0  0  0  0
  8 29  1  0  0  0  0
 10 30  1  0  0  0  0
 10 31  1  0  0  0  0
 15 32  1  0  0  0  0
 15 33  1  0  0  0  0
 16 34  1  0  0  0  0
 16 35  1  0  0  0  0
 16 36  1  0  0  0  0
 18 37  1  0  0  0  0
 18 38  1  0  0  0  0
 19 39  1  0  0  0  0
 19 40  1  0  0  0  0
 19 41  1  0  0  0  0
M  END
