 xtb: 6.7.1 (edcfbbe)
          04092505213D

 41 40  0     0  0            999 V2000
    5.7056    1.4296   -0.2551 C   0  0  0  0  0  0  0  0  0  0  0  0
    4.4658    0.8209   -0.8774 C   0  0  0  0  0  0  0  0  0  0  0  0
    3.4903    0.6397    0.1716 O   0  0  0  0  0  0  0  0  0  0  0  0
    1.9748    0.3317   -0.1714 P   0  0  0  0  0  0  0  0  0  0  0  0
    1.0934    1.5993   -1.3793 S   0  0  0  0  0  0  0  0  0  0  0  0
    1.2883    0.3233    1.2458 O   0  0  0  0  0  0  0  0  0  0  0  0
    1.8850   -0.1295    2.4904 C   0  0  0  0  0  0  0  0  0  0  0  0
    2.3064   -1.5825    2.4528 C   0  0  0  0  0  0  0  0  0  0  0  0
    2.0361   -1.6490   -0.9518 S   0  0  0  0  0  0  0  0  0  0  0  0
    0.2781   -1.7949   -1.3176 C   0  0  0  0  0  0  0  0  0  0  0  0
   -0.7343   -1.9538    0.1959 S   0  0  0  0  0  0  0  0  0  0  0  0
   -2.1084   -0.3854   -0.0490 P   0  0  0  0  0  0  0  0  0  0  0  0
   -2.3570    0.2901   -1.8766 S   0  0  0  0  0  0  0  0  0  0  0  0
   -1.7813    0.7280    1.0449 O   0  0  0  0  0  0  0  0  0  0  0  0
   -1.5410    2.1174    0.7785 C   0  0  0  0  0  0  0  0  0  0  0  0
   -2.6528    2.9508    1.3838 C   0  0  0  0  0  0  0  0  0  0  0  0
   -3.2978   -1.1876    0.6331 O   0  0  0  0  0  0  0  0  0  0  0  0
   -4.4794   -0.5645    1.1737 C   0  0  0  0  0  0  0  0  0  0  0  0
   -5.4122   -0.0707    0.0858 C   0  0  0  0  0  0  0  0  0  0  0  0
    5.4674    2.3924    0.1882 H   0  0  0  0  0  0  0  0  0  0  0  0
    6.0967    0.7720    0.5155 H   0  0  0  0  0  0  0  0  0  0  0  0
    6.4574    1.5672   -1.0251 H   0  0  0  0  0  0  0  0  0  0  0  0
    4.6751   -0.1568   -1.3188 H   0  0  0  0  0  0  0  0  0  0  0  0
    4.0352    1.4743   -1.6430 H   0  0  0  0  0  0  0  0  0  0  0  0
    2.7332    0.5212    2.7090 H   0  0  0  0  0  0  0  0  0  0  0  0
    1.0868    0.0358    3.2161 H   0  0  0  0  0  0  0  0  0  0  0  0
    3.1232   -1.7252    1.7489 H   0  0  0  0  0  0  0  0  0  0  0  0
    2.6394   -1.8742    3.4440 H   0  0  0  0  0  0  0  0  0  0  0  0
    1.4712   -2.2139    2.1572 H   0  0  0  0  0  0  0  0  0  0  0  0
    0.1608   -2.7043   -1.9011 H   0  0  0  0  0  0  0  0  0  0  0  0
   -0.0627   -0.9201   -1.8804 H   0  0  0  0  0  0  0  0  0  0  0  0
   -0.5714    2.3502    1.2241 H   0  0  0  0  0  0  0  0  0  0  0  0
   -1.4777    2.2715   -0.3042 H   0  0  0  0  0  0  0  0  0  0  0  0
   -3.5980    2.7285    0.8935 H   0  0  0  0  0  0  0  0  0  0  0  0
   -2.7416    2.7416    2.4464 H   0  0  0  0  0  0  0  0  0  0  0  0
   -2.4209    4.0014    1.2425 H   0  0  0  0  0  0  0  0  0  0  0  0
   -4.9409   -1.3593    1.7624 H   0  0  0  0  0  0  0  0  0  0  0  0
   -4.1742    0.2528    1.8325 H   0  0  0  0  0  0  0  0  0  0  0  0
   -6.3125    0.3333    0.5380 H   0  0  0  0  0  0  0  0  0  0  0  0
   -4.9294    0.7063   -0.5053 H   0  0  0  0  0  0  0  0  0  0  0  0
   -5.6783   -0.8877   -0.5800 H   0  0  0  0  0  0  0  0  0  0  0  0
  1  2  1  0  0  0  0
  2  3  1  0  0  0  0
  3  4  2  0  0  0  0
  4  5  2  0  0  0  0
  4  6  2  0  0  0  0
  6  7  1  0  0  0  0
  7  8  1  0  0  0  0
  4  9  1  0  0  0  0
  9 10  1  0  0  0  0
 10 11  1  0  0  0  0
 11 12  1  0  0  0  0
 12 13  2  0  0  0  0
 12 14  2  0  0  0  0
 14 15  1  0  0  0  0
 15 16  1  0  0  0  0
 12 17  2  0  0  0  0
 17 18  1  0  0  0  0
 18 19  1  0  0  0  0
  1 20  1  0  0  0  0
  1 21  1  0  0  0  0
  1 22  1  0  0  0  0
  2 23  1  0  0  0  0
  2 24  1  0  0  0  0
  7 25  1  0  0  0  0
  7 26  1  0  0  0  0
  8 27  1  0  0  0  0
  8 28  1  0  0  0  0
  8 29  1  0  0  0  0
 10 30  1  0  0  0  0
 10 31  1  0  0  0  0
 15 32  1  0  0  0  0
 15 33  1  0  0  0  0
 16 34  1  0  0  0  0
 16 35  1  0  0  0  0
 16 36  1  0  0  0  0
 18 37  1  0  0  0  0
 18 38  1  0  0  0  0
 19 39  1  0  0  0  0
 19 40  1  0  0  0  0
 19 41  1  0  0  0  0
M  END
