 xtb: 6.7.1 (edcfbbe)
          04092505213D

 41 40  0     0  0            999 V2000
    5.2825   -2.3703   -0.9002 C   0  0  0  0  0  0  0  0  0  0  0  0
    4.2126   -1.3664   -1.2796 C   0  0  0  0  0  0  0  0  0  0  0  0
    3.2288   -1.3492   -0.2260 O   0  0  0  0  0  0  0  0  0  0  0  0
    2.2056   -0.1484   -0.0596 P   0  0  0  0  0  0  0  0  0  0  0  0
    3.0006    1.6481   -0.0965 S   0  0  0  0  0  0  0  0  0  0  0  0
    1.4431   -0.5584    1.2646 O   0  0  0  0  0  0  0  0  0  0  0  0
    1.8229   -0.0350    2.5559 C   0  0  0  0  0  0  0  0  0  0  0  0
    3.1682   -0.5703    2.9966 C   0  0  0  0  0  0  0  0  0  0  0  0
    0.7405   -0.5488   -1.5297 S   0  0  0  0  0  0  0  0  0  0  0  0
   -0.0465    1.0856   -1.4694 C   0  0  0  0  0  0  0  0  0  0  0  0
   -0.8792    1.4122    0.0975 S   0  0  0  0  0  0  0  0  0  0  0  0
   -2.7233    0.3846   -0.2809 P   0  0  0  0  0  0  0  0  0  0  0  0
   -3.0785    0.0380   -2.1750 S   0  0  0  0  0  0  0  0  0  0  0  0
   -3.8674    1.2845    0.3144 O   0  0  0  0  0  0  0  0  0  0  0  0
   -4.1715    1.4665    1.7193 C   0  0  0  0  0  0  0  0  0  0  0  0
   -3.0389    2.1243    2.4780 C   0  0  0  0  0  0  0  0  0  0  0  0
   -2.7449   -0.8415    0.7368 O   0  0  0  0  0  0  0  0  0  0  0  0
   -1.7974   -1.9198    0.7923 C   0  0  0  0  0  0  0  0  0  0  0  0
   -1.9248   -2.8665   -0.3839 C   0  0  0  0  0  0  0  0  0  0  0  0
    5.7742   -2.0659    0.0193 H   0  0  0  0  0  0  0  0  0  0  0  0
    4.8348   -3.3488   -0.7535 H   0  0  0  0  0  0  0  0  0  0  0  0
    6.0168   -2.4260   -1.6970 H   0  0  0  0  0  0  0  0  0  0  0  0
    3.7120   -1.6484   -2.2099 H   0  0  0  0  0  0  0  0  0  0  0  0
    4.6269   -0.3582   -1.3879 H   0  0  0  0  0  0  0  0  0  0  0  0
    1.8372    1.0578    2.4955 H   0  0  0  0  0  0  0  0  0  0  0  0
    1.0191   -0.3596    3.2176 H   0  0  0  0  0  0  0  0  0  0  0  0
    3.9454   -0.2059    2.3257 H   0  0  0  0  0  0  0  0  0  0  0  0
    3.3821   -0.2266    4.0038 H   0  0  0  0  0  0  0  0  0  0  0  0
    3.1660   -1.6567    2.9746 H   0  0  0  0  0  0  0  0  0  0  0  0
   -0.7756    1.1108   -2.2804 H   0  0  0  0  0  0  0  0  0  0  0  0
    0.7163    1.8548   -1.5870 H   0  0  0  0  0  0  0  0  0  0  0  0
   -5.0609    2.0981    1.6989 H   0  0  0  0  0  0  0  0  0  0  0  0
   -4.4165    0.4916    2.1442 H   0  0  0  0  0  0  0  0  0  0  0  0
   -3.3579    2.3150    3.4980 H   0  0  0  0  0  0  0  0  0  0  0  0
   -2.1655    1.4744    2.4959 H   0  0  0  0  0  0  0  0  0  0  0  0
   -2.7613    3.0641    2.0076 H   0  0  0  0  0  0  0  0  0  0  0  0
   -0.7860   -1.5061    0.8511 H   0  0  0  0  0  0  0  0  0  0  0  0
   -2.0389   -2.4236    1.7306 H   0  0  0  0  0  0  0  0  0  0  0  0
   -1.6507   -2.3658   -1.3106 H   0  0  0  0  0  0  0  0  0  0  0  0
   -1.2607   -3.7117   -0.2343 H   0  0  0  0  0  0  0  0  0  0  0  0
   -2.9485   -3.2215   -0.4718 H   0  0  0  0  0  0  0  0  0  0  0  0
  1  2  1  0  0  0  0
  2  3  1  0  0  0  0
  3  4  2  0  0  0  0
  4  5  2  0  0  0  0
  4  6  2  0  0  0  0
  6  7  1  0  0  0  0
  7  8  1  0  0  0  0
  4  9  1  0  0  0  0
  9 10  1  0  0  0  0
 10 11  1  0  0  0  0
 11 12  1  0  0  0  0
 12 13  2  0  0  0  0
 12 14  2  0  0  0  0
 14 15  1  0  0  0  0
 15 16  1  0  0  0  0
 12 17  2  0  0  0  0
 17 18  1  0  0  0  0
 18 19  1  0  0  0  0
  1 20  1  0  0  0  0
  1 21  1  0  0  0  0
  1 22  1  0  0  0  0
  2 23  1  0  0  0  0
  2 24  1  0  0  0  0
  7 25  1  0  0  0  0
  7 26  1  0  0  0  0
  8 27  1  0  0  0  0
  8 28  1  0  0  0  0
  8 29  1  0  0  0  0
 10 30  1  0  0  0  0
 10 31  1  0  0  0  0
 15 32  1  0  0  0  0
 15 33  1  0  0  0  0
 16 34  1  0  0  0  0
 16 35  1  0  0  0  0
 16 36  1  0  0  0  0
 18 37  1  0  0  0  0
 18 38  1  0  0  0  0
 19 39  1  0  0  0  0
 19 40  1  0  0  0  0
 19 41  1  0  0  0  0
M  END
