 xtb: 6.7.1 (edcfbbe)
          04092505213D

 41 40  0     0  0            999 V2000
    5.8037   -1.7106   -0.9732 C   0  0  0  0  0  0  0  0  0  0  0  0
    4.5179   -0.9808   -1.3041 C   0  0  0  0  0  0  0  0  0  0  0  0
    3.7528   -0.8592   -0.0868 O   0  0  0  0  0  0  0  0  0  0  0  0
    2.5411    0.1607    0.0196 P   0  0  0  0  0  0  0  0  0  0  0  0
    2.9351    2.0172   -0.4518 S   0  0  0  0  0  0  0  0  0  0  0  0
    2.0749    0.0225    1.5134 O   0  0  0  0  0  0  0  0  0  0  0  0
    1.7217   -1.2366    2.1414 C   0  0  0  0  0  0  0  0  0  0  0  0
    2.9085   -1.8250    2.8754 C   0  0  0  0  0  0  0  0  0  0  0  0
    1.0429   -0.7744   -1.1821 S   0  0  0  0  0  0  0  0  0  0  0  0
   -0.0501    0.6617   -1.2626 C   0  0  0  0  0  0  0  0  0  0  0  0
   -0.9594    0.9404    0.2769 S   0  0  0  0  0  0  0  0  0  0  0  0
   -2.9285    0.3615   -0.3543 P   0  0  0  0  0  0  0  0  0  0  0  0
   -3.1122   -0.1801   -2.2258 S   0  0  0  0  0  0  0  0  0  0  0  0
   -3.8309    1.6115   -0.0299 O   0  0  0  0  0  0  0  0  0  0  0  0
   -3.7021    2.5101    1.0972 C   0  0  0  0  0  0  0  0  0  0  0  0
   -3.6773    1.7850    2.4246 C   0  0  0  0  0  0  0  0  0  0  0  0
   -3.4454   -0.7146    0.6967 O   0  0  0  0  0  0  0  0  0  0  0  0
   -3.2489   -2.1272    0.5209 C   0  0  0  0  0  0  0  0  0  0  0  0
   -1.8011   -2.5296    0.7157 C   0  0  0  0  0  0  0  0  0  0  0  0
    6.3957   -1.8143   -1.8765 H   0  0  0  0  0  0  0  0  0  0  0  0
    6.3714   -1.1504   -0.2356 H   0  0  0  0  0  0  0  0  0  0  0  0
    5.5810   -2.6963   -0.5751 H   0  0  0  0  0  0  0  0  0  0  0  0
    3.9172   -1.5351   -2.0302 H   0  0  0  0  0  0  0  0  0  0  0  0
    4.7144    0.0235   -1.6938 H   0  0  0  0  0  0  0  0  0  0  0  0
    0.9167   -0.9726    2.8295 H   0  0  0  0  0  0  0  0  0  0  0  0
    1.3502   -1.9227    1.3751 H   0  0  0  0  0  0  0  0  0  0  0  0
    2.5945   -2.7276    3.3902 H   0  0  0  0  0  0  0  0  0  0  0  0
    3.7020   -2.0684    2.1743 H   0  0  0  0  0  0  0  0  0  0  0  0
    3.2891   -1.1114    3.6009 H   0  0  0  0  0  0  0  0  0  0  0  0
   -0.7638    0.4803   -2.0700 H   0  0  0  0  0  0  0  0  0  0  0  0
    0.5581    1.5464   -1.4552 H   0  0  0  0  0  0  0  0  0  0  0  0
   -2.7925    3.1009    0.9593 H   0  0  0  0  0  0  0  0  0  0  0  0
   -4.5779    3.1538    1.0026 H   0  0  0  0  0  0  0  0  0  0  0  0
   -3.6738    2.5152    3.2280 H   0  0  0  0  0  0  0  0  0  0  0  0
   -4.5502    1.1449    2.5209 H   0  0  0  0  0  0  0  0  0  0  0  0
   -2.7795    1.1738    2.4979 H   0  0  0  0  0  0  0  0  0  0  0  0
   -3.8956   -2.5759    1.2764 H   0  0  0  0  0  0  0  0  0  0  0  0
   -3.5961   -2.4061   -0.4791 H   0  0  0  0  0  0  0  0  0  0  0  0
   -1.7255   -3.6121    0.7063 H   0  0  0  0  0  0  0  0  0  0  0  0
   -1.1898   -2.1319   -0.0937 H   0  0  0  0  0  0  0  0  0  0  0  0
   -1.4304   -2.1506    1.6646 H   0  0  0  0  0  0  0  0  0  0  0  0
  1  2  1  0  0  0  0
  2  3  1  0  0  0  0
  3  4  2  0  0  0  0
  4  5  2  0  0  0  0
  4  6  2  0  0  0  0
  6  7  1  0  0  0  0
  7  8  1  0  0  0  0
  4  9  1  0  0  0  0
  9 10  1  0  0  0  0
 10 11  1  0  0  0  0
 11 12  1  0  0  0  0
 12 13  2  0  0  0  0
 12 14  2  0  0  0  0
 14 15  1  0  0  0  0
 15 16  1  0  0  0  0
 12 17  2  0  0  0  0
 17 18  1  0  0  0  0
 18 19  1  0  0  0  0
  1 20  1  0  0  0  0
  1 21  1  0  0  0  0
  1 22  1  0  0  0  0
  2 23  1  0  0  0  0
  2 24  1  0  0  0  0
  7 25  1  0  0  0  0
  7 26  1  0  0  0  0
  8 27  1  0  0  0  0
  8 28  1  0  0  0  0
  8 29  1  0  0  0  0
 10 30  1  0  0  0  0
 10 31  1  0  0  0  0
 15 32  1  0  0  0  0
 15 33  1  0  0  0  0
 16 34  1  0  0  0  0
 16 35  1  0  0  0  0
 16 36  1  0  0  0  0
 18 37  1  0  0  0  0
 18 38  1  0  0  0  0
 19 39  1  0  0  0  0
 19 40  1  0  0  0  0
 19 41  1  0  0  0  0
M  END
