 xtb: 6.7.1 (edcfbbe)
          04092513583D

 41 40  0     0  0            999 V2000
    5.8324   -1.0394   -0.3664 C   0  0  0  0  0  0  0  0  0  0  0  0
    5.0428   -0.3436   -1.4566 C   0  0  0  0  0  0  0  0  0  0  0  0
    3.6391   -0.6874   -1.4326 O   0  0  0  0  0  0  0  0  0  0  0  0
    2.6740   -0.2303   -0.2620 P   0  0  0  0  0  0  0  0  0  0  0  0
    2.9704    1.5823    0.4321 S   0  0  0  0  0  0  0  0  0  0  0  0
    2.8882   -1.4016    0.7943 O   0  0  0  0  0  0  0  0  0  0  0  0
    2.4960   -1.2988    2.1712 C   0  0  0  0  0  0  0  0  0  0  0  0
    1.0000   -1.4624    2.3470 C   0  0  0  0  0  0  0  0  0  0  0  0
    0.8186   -0.6501   -1.2008 S   0  0  0  0  0  0  0  0  0  0  0  0
    0.0901    1.0176   -1.2221 C   0  0  0  0  0  0  0  0  0  0  0  0
   -0.7942    1.4656    0.2997 S   0  0  0  0  0  0  0  0  0  0  0  0
   -2.5105    0.2716   -0.0086 P   0  0  0  0  0  0  0  0  0  0  0  0
   -3.1947    0.1406   -1.8450 S   0  0  0  0  0  0  0  0  0  0  0  0
   -3.5502    0.7965    1.0729 O   0  0  0  0  0  0  0  0  0  0  0  0
   -4.5527    1.7904    0.7961 C   0  0  0  0  0  0  0  0  0  0  0  0
   -3.9644    3.1780    0.6385 C   0  0  0  0  0  0  0  0  0  0  0  0
   -2.0137   -1.0825    0.6460 O   0  0  0  0  0  0  0  0  0  0  0  0
   -2.6016   -2.3601    0.3284 C   0  0  0  0  0  0  0  0  0  0  0  0
   -3.9940   -2.5077    0.9065 C   0  0  0  0  0  0  0  0  0  0  0  0
    5.5334   -0.6659    0.6116 H   0  0  0  0  0  0  0  0  0  0  0  0
    5.6609   -2.1120   -0.4017 H   0  0  0  0  0  0  0  0  0  0  0  0
    6.8900   -0.8387   -0.5098 H   0  0  0  0  0  0  0  0  0  0  0  0
    5.3683   -0.6586   -2.4491 H   0  0  0  0  0  0  0  0  0  0  0  0
    5.1333    0.7432   -1.3626 H   0  0  0  0  0  0  0  0  0  0  0  0
    3.0452   -2.1033    2.6632 H   0  0  0  0  0  0  0  0  0  0  0  0
    2.8282   -0.3294    2.5578 H   0  0  0  0  0  0  0  0  0  0  0  0
    0.7634   -1.5048    3.4052 H   0  0  0  0  0  0  0  0  0  0  0  0
    0.4701   -0.6198    1.9049 H   0  0  0  0  0  0  0  0  0  0  0  0
    0.6640   -2.3768    1.8644 H   0  0  0  0  0  0  0  0  0  0  0  0
   -0.6105    1.0345   -2.0568 H   0  0  0  0  0  0  0  0  0  0  0  0
    0.8761    1.7604   -1.3451 H   0  0  0  0  0  0  0  0  0  0  0  0
   -5.0914    1.4970   -0.1108 H   0  0  0  0  0  0  0  0  0  0  0  0
   -5.2193    1.7355    1.6582 H   0  0  0  0  0  0  0  0  0  0  0  0
   -3.3514    3.4310    1.4996 H   0  0  0  0  0  0  0  0  0  0  0  0
   -3.3466    3.2252   -0.2571 H   0  0  0  0  0  0  0  0  0  0  0  0
   -4.7716    3.8984    0.5474 H   0  0  0  0  0  0  0  0  0  0  0  0
   -2.6193   -2.4720   -0.7604 H   0  0  0  0  0  0  0  0  0  0  0  0
   -1.9081   -3.0824    0.7609 H   0  0  0  0  0  0  0  0  0  0  0  0
   -4.6730   -1.8026    0.4291 H   0  0  0  0  0  0  0  0  0  0  0  0
   -4.3506   -3.5171    0.7245 H   0  0  0  0  0  0  0  0  0  0  0  0
   -3.9811   -2.3156    1.9760 H   0  0  0  0  0  0  0  0  0  0  0  0
  1  2  1  0  0  0  0
  2  3  1  0  0  0  0
  3  4  2  0  0  0  0
  4  5  2  0  0  0  0
  4  6  2  0  0  0  0
  6  7  1  0  0  0  0
  7  8  1  0  0  0  0
  4  9  1  0  0  0  0
  9 10  1  0  0  0  0
 10 11  1  0  0  0  0
 11 12  1  0  0  0  0
 12 13  2  0  0  0  0
 12 14  2  0  0  0  0
 14 15  1  0  0  0  0
 15 16  1  0  0  0  0
 12 17  2  0  0  0  0
 17 18  1  0  0  0  0
 18 19  1  0  0  0  0
  1 20  1  0  0  0  0
  1 21  1  0  0  0  0
  1 22  1  0  0  0  0
  2 23  1  0  0  0  0
  2 24  1  0  0  0  0
  7 25  1  0  0  0  0
  7 26  1  0  0  0  0
  8 27  1  0  0  0  0
  8 28  1  0  0  0  0
  8 29  1  0  0  0  0
 10 30  1  0  0  0  0
 10 31  1  0  0  0  0
 15 32  1  0  0  0  0
 15 33  1  0  0  0  0
 16 34  1  0  0  0  0
 16 35  1  0  0  0  0
 16 36  1  0  0  0  0
 18 37  1  0  0  0  0
 18 38  1  0  0  0  0
 19 39  1  0  0  0  0
 19 40  1  0  0  0  0
 19 41  1  0  0  0  0
M  END
