 xtb: 6.7.1 (edcfbbe)
          04092505213D

 41 40  0     0  0            999 V2000
    5.1095    0.5463    0.3859 C   0  0  0  0  0  0  0  0  0  0  0  0
    3.9815    1.1486   -0.4239 C   0  0  0  0  0  0  0  0  0  0  0  0
    3.0024    0.1535   -0.7970 O   0  0  0  0  0  0  0  0  0  0  0  0
    2.0747   -0.5403    0.2795 P   0  0  0  0  0  0  0  0  0  0  0  0
    1.5930    0.5525    1.8379 S   0  0  0  0  0  0  0  0  0  0  0  0
    2.8656   -1.8677    0.6423 O   0  0  0  0  0  0  0  0  0  0  0  0
    2.5977   -2.6610    1.8148 C   0  0  0  0  0  0  0  0  0  0  0  0
    3.9045   -3.2665    2.2881 C   0  0  0  0  0  0  0  0  0  0  0  0
    0.5561   -1.2810   -1.0077 S   0  0  0  0  0  0  0  0  0  0  0  0
    0.1023    0.2719   -1.8330 C   0  0  0  0  0  0  0  0  0  0  0  0
   -0.6659    1.4847   -0.7374 S   0  0  0  0  0  0  0  0  0  0  0  0
   -2.5449    0.4840   -0.5794 P   0  0  0  0  0  0  0  0  0  0  0  0
   -3.1891   -0.3432   -2.2292 S   0  0  0  0  0  0  0  0  0  0  0  0
   -3.4570    1.5599    0.1507 O   0  0  0  0  0  0  0  0  0  0  0  0
   -3.6063    2.9365   -0.2472 C   0  0  0  0  0  0  0  0  0  0  0  0
   -4.0096    3.0864   -1.6988 C   0  0  0  0  0  0  0  0  0  0  0  0
   -2.4114   -0.6215    0.5333 O   0  0  0  0  0  0  0  0  0  0  0  0
   -1.9994   -0.3612    1.8982 C   0  0  0  0  0  0  0  0  0  0  0  0
   -1.4551   -1.6547    2.4665 C   0  0  0  0  0  0  0  0  0  0  0  0
    5.8731    1.2989    0.5557 H   0  0  0  0  0  0  0  0  0  0  0  0
    4.7296    0.2043    1.3477 H   0  0  0  0  0  0  0  0  0  0  0  0
    5.5424   -0.2985   -0.1433 H   0  0  0  0  0  0  0  0  0  0  0  0
    4.3318    1.5414   -1.3793 H   0  0  0  0  0  0  0  0  0  0  0  0
    3.4755    1.9370    0.1424 H   0  0  0  0  0  0  0  0  0  0  0  0
    2.1567   -2.0162    2.5830 H   0  0  0  0  0  0  0  0  0  0  0  0
    1.8803   -3.4368    1.5355 H   0  0  0  0  0  0  0  0  0  0  0  0
    4.3530   -3.8498    1.4892 H   0  0  0  0  0  0  0  0  0  0  0  0
    4.5975   -2.4844    2.5854 H   0  0  0  0  0  0  0  0  0  0  0  0
    3.7086   -3.9118    3.1381 H   0  0  0  0  0  0  0  0  0  0  0  0
   -0.6130   -0.0040   -2.6106 H   0  0  0  0  0  0  0  0  0  0  0  0
    0.9913    0.7328   -2.2551 H   0  0  0  0  0  0  0  0  0  0  0  0
   -4.3794    3.3137    0.4245 H   0  0  0  0  0  0  0  0  0  0  0  0
   -2.6610    3.4505   -0.0515 H   0  0  0  0  0  0  0  0  0  0  0  0
   -4.9142    2.5181   -1.9017 H   0  0  0  0  0  0  0  0  0  0  0  0
   -4.1855    4.1347   -1.9175 H   0  0  0  0  0  0  0  0  0  0  0  0
   -3.2186    2.7149   -2.3490 H   0  0  0  0  0  0  0  0  0  0  0  0
   -1.2353    0.4229    1.9010 H   0  0  0  0  0  0  0  0  0  0  0  0
   -2.8739   -0.0123    2.4496 H   0  0  0  0  0  0  0  0  0  0  0  0
   -1.1393   -1.4868    3.4910 H   0  0  0  0  0  0  0  0  0  0  0  0
   -2.2175   -2.4273    2.4369 H   0  0  0  0  0  0  0  0  0  0  0  0
   -0.6003   -1.9861    1.8795 H   0  0  0  0  0  0  0  0  0  0  0  0
  1  2  1  0  0  0  0
  2  3  1  0  0  0  0
  3  4  2  0  0  0  0
  4  5  2  0  0  0  0
  4  6  2  0  0  0  0
  6  7  1  0  0  0  0
  7  8  1  0  0  0  0
  4  9  1  0  0  0  0
  9 10  1  0  0  0  0
 10 11  1  0  0  0  0
 11 12  1  0  0  0  0
 12 13  2  0  0  0  0
 12 14  2  0  0  0  0
 14 15  1  0  0  0  0
 15 16  1  0  0  0  0
 12 17  2  0  0  0  0
 17 18  1  0  0  0  0
 18 19  1  0  0  0  0
  1 20  1  0  0  0  0
  1 21  1  0  0  0  0
  1 22  1  0  0  0  0
  2 23  1  0  0  0  0
  2 24  1  0  0  0  0
  7 25  1  0  0  0  0
  7 26  1  0  0  0  0
  8 27  1  0  0  0  0
  8 28  1  0  0  0  0
  8 29  1  0  0  0  0
 10 30  1  0  0  0  0
 10 31  1  0  0  0  0
 15 32  1  0  0  0  0
 15 33  1  0  0  0  0
 16 34  1  0  0  0  0
 16 35  1  0  0  0  0
 16 36  1  0  0  0  0
 18 37  1  0  0  0  0
 18 38  1  0  0  0  0
 19 39  1  0  0  0  0
 19 40  1  0  0  0  0
 19 41  1  0  0  0  0
M  END
