 xtb: 6.7.1 (edcfbbe)
          04092505203D

 41 40  0     0  0            999 V2000
    2.4753    0.4632   -2.4392 C   0  0  0  0  0  0  0  0  0  0  0  0
    2.1056    1.4980   -1.3978 C   0  0  0  0  0  0  0  0  0  0  0  0
    1.2886    0.9614   -0.3222 O   0  0  0  0  0  0  0  0  0  0  0  0
    1.7980   -0.0389    0.7955 P   0  0  0  0  0  0  0  0  0  0  0  0
    0.8367    0.2593    2.4789 S   0  0  0  0  0  0  0  0  0  0  0  0
    3.3537    0.2729    0.8336 O   0  0  0  0  0  0  0  0  0  0  0  0
    4.3637   -0.6244    1.3337 C   0  0  0  0  0  0  0  0  0  0  0  0
    4.0767   -1.1167    2.7360 C   0  0  0  0  0  0  0  0  0  0  0  0
    1.7281   -2.0100   -0.0218 S   0  0  0  0  0  0  0  0  0  0  0  0
    0.0930   -1.9886   -0.7993 C   0  0  0  0  0  0  0  0  0  0  0  0
   -1.2812   -1.5996    0.3298 S   0  0  0  0  0  0  0  0  0  0  0  0
   -1.8922    0.2570   -0.4619 P   0  0  0  0  0  0  0  0  0  0  0  0
   -1.2769    0.7178   -2.2671 S   0  0  0  0  0  0  0  0  0  0  0  0
   -1.4952    1.2956    0.6632 O   0  0  0  0  0  0  0  0  0  0  0  0
   -1.3335    2.7006    0.4111 C   0  0  0  0  0  0  0  0  0  0  0  0
   -2.6709    3.3872    0.2329 C   0  0  0  0  0  0  0  0  0  0  0  0
   -3.4700    0.2201   -0.2477 O   0  0  0  0  0  0  0  0  0  0  0  0
   -4.3599   -0.8303   -0.6669 C   0  0  0  0  0  0  0  0  0  0  0  0
   -4.2106   -1.1894   -2.1311 C   0  0  0  0  0  0  0  0  0  0  0  0
    3.0751    0.9456   -3.2047 H   0  0  0  0  0  0  0  0  0  0  0  0
    3.0521   -0.3446   -1.9949 H   0  0  0  0  0  0  0  0  0  0  0  0
    1.5800    0.0581   -2.9049 H   0  0  0  0  0  0  0  0  0  0  0  0
    1.4717    2.2746   -1.8295 H   0  0  0  0  0  0  0  0  0  0  0  0
    2.9940    1.9451   -0.9507 H   0  0  0  0  0  0  0  0  0  0  0  0
    4.4432   -1.4664    0.6405 H   0  0  0  0  0  0  0  0  0  0  0  0
    5.2754   -0.0254    1.2994 H   0  0  0  0  0  0  0  0  0  0  0  0
    4.9065   -1.7252    3.0805 H   0  0  0  0  0  0  0  0  0  0  0  0
    3.9368   -0.2778    3.4137 H   0  0  0  0  0  0  0  0  0  0  0  0
    3.1680   -1.7176    2.7438 H   0  0  0  0  0  0  0  0  0  0  0  0
   -0.0572   -3.0023   -1.1628 H   0  0  0  0  0  0  0  0  0  0  0  0
    0.0748   -1.2675   -1.6212 H   0  0  0  0  0  0  0  0  0  0  0  0
   -0.7952    3.0642    1.2884 H   0  0  0  0  0  0  0  0  0  0  0  0
   -0.7089    2.8247   -0.4798 H   0  0  0  0  0  0  0  0  0  0  0  0
   -2.5149    4.4549    0.1149 H   0  0  0  0  0  0  0  0  0  0  0  0
   -3.1685    2.9967   -0.6542 H   0  0  0  0  0  0  0  0  0  0  0  0
   -3.3024    3.2040    1.0981 H   0  0  0  0  0  0  0  0  0  0  0  0
   -4.1778   -1.7029   -0.0332 H   0  0  0  0  0  0  0  0  0  0  0  0
   -5.3501   -0.4226   -0.4553 H   0  0  0  0  0  0  0  0  0  0  0  0
   -4.3211   -0.3046   -2.7537 H   0  0  0  0  0  0  0  0  0  0  0  0
   -3.2281   -1.6214   -2.3157 H   0  0  0  0  0  0  0  0  0  0  0  0
   -4.9719   -1.9146   -2.4000 H   0  0  0  0  0  0  0  0  0  0  0  0
  1  2  1  0  0  0  0
  2  3  1  0  0  0  0
  3  4  2  0  0  0  0
  4  5  2  0  0  0  0
  4  6  2  0  0  0  0
  6  7  1  0  0  0  0
  7  8  1  0  0  0  0
  4  9  1  0  0  0  0
  9 10  1  0  0  0  0
 10 11  1  0  0  0  0
 11 12  1  0  0  0  0
 12 13  2  0  0  0  0
 12 14  2  0  0  0  0
 14 15  1  0  0  0  0
 15 16  1  0  0  0  0
 12 17  2  0  0  0  0
 17 18  1  0  0  0  0
 18 19  1  0  0  0  0
  1 20  1  0  0  0  0
  1 21  1  0  0  0  0
  1 22  1  0  0  0  0
  2 23  1  0  0  0  0
  2 24  1  0  0  0  0
  7 25  1  0  0  0  0
  7 26  1  0  0  0  0
  8 27  1  0  0  0  0
  8 28  1  0  0  0  0
  8 29  1  0  0  0  0
 10 30  1  0  0  0  0
 10 31  1  0  0  0  0
 15 32  1  0  0  0  0
 15 33  1  0  0  0  0
 16 34  1  0  0  0  0
 16 35  1  0  0  0  0
 16 36  1  0  0  0  0
 18 37  1  0  0  0  0
 18 38  1  0  0  0  0
 19 39  1  0  0  0  0
 19 40  1  0  0  0  0
 19 41  1  0  0  0  0
M  END
