 xtb: 6.7.1 (edcfbbe)
          04092505203D

 41 40  0     0  0            999 V2000
    4.8421   -1.4760   -0.0562 C   0  0  0  0  0  0  0  0  0  0  0  0
    4.0941   -1.5580   -1.3687 C   0  0  0  0  0  0  0  0  0  0  0  0
    3.2745   -0.3917   -1.6234 O   0  0  0  0  0  0  0  0  0  0  0  0
    2.1356    0.1855   -0.6959 P   0  0  0  0  0  0  0  0  0  0  0  0
    1.0002    1.3956   -1.7341 S   0  0  0  0  0  0  0  0  0  0  0  0
    2.9580    0.8469    0.4871 O   0  0  0  0  0  0  0  0  0  0  0  0
    2.4748    1.8877    1.3511 C   0  0  0  0  0  0  0  0  0  0  0  0
    3.6601    2.7359    1.7647 C   0  0  0  0  0  0  0  0  0  0  0  0
    1.1993   -1.5338    0.1437 S   0  0  0  0  0  0  0  0  0  0  0  0
   -0.2332   -1.6557   -0.9813 C   0  0  0  0  0  0  0  0  0  0  0  0
   -1.8072   -1.8290   -0.1132 S   0  0  0  0  0  0  0  0  0  0  0  0
   -2.0945    0.2101    0.4347 P   0  0  0  0  0  0  0  0  0  0  0  0
   -0.7415    0.9777    1.6250 S   0  0  0  0  0  0  0  0  0  0  0  0
   -3.5777    0.2466    0.9983 O   0  0  0  0  0  0  0  0  0  0  0  0
   -3.8816   -0.0115    2.3817 C   0  0  0  0  0  0  0  0  0  0  0  0
   -3.5528   -1.4340    2.7839 C   0  0  0  0  0  0  0  0  0  0  0  0
   -2.2034    1.0159   -0.9157 O   0  0  0  0  0  0  0  0  0  0  0  0
   -3.3837    1.1449   -1.7455 C   0  0  0  0  0  0  0  0  0  0  0  0
   -3.8505   -0.1767   -2.3182 C   0  0  0  0  0  0  0  0  0  0  0  0
    5.4257   -0.5605   -0.0105 H   0  0  0  0  0  0  0  0  0  0  0  0
    4.1402   -1.4879    0.7759 H   0  0  0  0  0  0  0  0  0  0  0  0
    5.5052   -2.3314    0.0282 H   0  0  0  0  0  0  0  0  0  0  0  0
    3.4488   -2.4400   -1.3902 H   0  0  0  0  0  0  0  0  0  0  0  0
    4.7732   -1.5723   -2.2223 H   0  0  0  0  0  0  0  0  0  0  0  0
    1.7249    2.4788    0.8144 H   0  0  0  0  0  0  0  0  0  0  0  0
    1.9916    1.4209    2.2135 H   0  0  0  0  0  0  0  0  0  0  0  0
    4.1187    3.1880    0.8893 H   0  0  0  0  0  0  0  0  0  0  0  0
    3.3173    3.5171    2.4349 H   0  0  0  0  0  0  0  0  0  0  0  0
    4.3958    2.1203    2.2739 H   0  0  0  0  0  0  0  0  0  0  0  0
   -0.1233   -2.5558   -1.5797 H   0  0  0  0  0  0  0  0  0  0  0  0
   -0.2518   -0.7557   -1.6032 H   0  0  0  0  0  0  0  0  0  0  0  0
   -3.3218    0.7006    2.9958 H   0  0  0  0  0  0  0  0  0  0  0  0
   -4.9506    0.1936    2.4530 H   0  0  0  0  0  0  0  0  0  0  0  0
   -3.9074   -1.6119    3.7940 H   0  0  0  0  0  0  0  0  0  0  0  0
   -4.0230   -2.1406    2.1046 H   0  0  0  0  0  0  0  0  0  0  0  0
   -2.4745   -1.5868    2.7576 H   0  0  0  0  0  0  0  0  0  0  0  0
   -4.1686    1.6105   -1.1467 H   0  0  0  0  0  0  0  0  0  0  0  0
   -3.0548    1.8306   -2.5285 H   0  0  0  0  0  0  0  0  0  0  0  0
   -3.0453   -0.6605   -2.8657 H   0  0  0  0  0  0  0  0  0  0  0  0
   -4.1869   -0.8381   -1.5230 H   0  0  0  0  0  0  0  0  0  0  0  0
   -4.6769    0.0106   -2.9969 H   0  0  0  0  0  0  0  0  0  0  0  0
  1  2  1  0  0  0  0
  2  3  1  0  0  0  0
  3  4  2  0  0  0  0
  4  5  2  0  0  0  0
  4  6  2  0  0  0  0
  6  7  1  0  0  0  0
  7  8  1  0  0  0  0
  4  9  1  0  0  0  0
  9 10  1  0  0  0  0
 10 11  1  0  0  0  0
 11 12  1  0  0  0  0
 12 13  2  0  0  0  0
 12 14  2  0  0  0  0
 14 15  1  0  0  0  0
 15 16  1  0  0  0  0
 12 17  2  0  0  0  0
 17 18  1  0  0  0  0
 18 19  1  0  0  0  0
  1 20  1  0  0  0  0
  1 21  1  0  0  0  0
  1 22  1  0  0  0  0
  2 23  1  0  0  0  0
  2 24  1  0  0  0  0
  7 25  1  0  0  0  0
  7 26  1  0  0  0  0
  8 27  1  0  0  0  0
  8 28  1  0  0  0  0
  8 29  1  0  0  0  0
 10 30  1  0  0  0  0
 10 31  1  0  0  0  0
 15 32  1  0  0  0  0
 15 33  1  0  0  0  0
 16 34  1  0  0  0  0
 16 35  1  0  0  0  0
 16 36  1  0  0  0  0
 18 37  1  0  0  0  0
 18 38  1  0  0  0  0
 19 39  1  0  0  0  0
 19 40  1  0  0  0  0
 19 41  1  0  0  0  0
M  END
