 xtb: 6.7.1 (edcfbbe)
          04092505213D

 41 40  0     0  0            999 V2000
    2.7581    1.8006   -1.9329 C   0  0  0  0  0  0  0  0  0  0  0  0
    3.4177    1.9185   -0.5732 C   0  0  0  0  0  0  0  0  0  0  0  0
    3.4532    0.6543    0.1131 O   0  0  0  0  0  0  0  0  0  0  0  0
    2.2182    0.1093    0.9512 P   0  0  0  0  0  0  0  0  0  0  0  0
    1.3313    1.4402    2.0729 S   0  0  0  0  0  0  0  0  0  0  0  0
    2.8346   -1.0588    1.8122 O   0  0  0  0  0  0  0  0  0  0  0  0
    3.6612   -2.1201    1.2698 C   0  0  0  0  0  0  0  0  0  0  0  0
    5.1306   -1.7684    1.3757 C   0  0  0  0  0  0  0  0  0  0  0  0
    1.0428   -0.8999   -0.5287 S   0  0  0  0  0  0  0  0  0  0  0  0
   -0.1763   -1.6270    0.5981 C   0  0  0  0  0  0  0  0  0  0  0  0
   -1.4948   -0.4802    1.0782 S   0  0  0  0  0  0  0  0  0  0  0  0
   -2.2113   -0.0989   -0.8980 P   0  0  0  0  0  0  0  0  0  0  0  0
   -2.0026   -1.5734   -2.1675 S   0  0  0  0  0  0  0  0  0  0  0  0
   -1.4779    1.1831   -1.4415 O   0  0  0  0  0  0  0  0  0  0  0  0
   -1.1350    2.3896   -0.7161 C   0  0  0  0  0  0  0  0  0  0  0  0
   -2.3083    3.0258   -0.0048 C   0  0  0  0  0  0  0  0  0  0  0  0
   -3.6864    0.4307   -0.6456 O   0  0  0  0  0  0  0  0  0  0  0  0
   -4.7275   -0.3209    0.0060 C   0  0  0  0  0  0  0  0  0  0  0  0
   -5.3786   -1.3219   -0.9282 C   0  0  0  0  0  0  0  0  0  0  0  0
    1.7069    1.5366   -1.8302 H   0  0  0  0  0  0  0  0  0  0  0  0
    2.8332    2.7521   -2.4493 H   0  0  0  0  0  0  0  0  0  0  0  0
    3.2492    1.0319   -2.5238 H   0  0  0  0  0  0  0  0  0  0  0  0
    2.8949    2.6437    0.0593 H   0  0  0  0  0  0  0  0  0  0  0  0
    4.4672    2.2018   -0.6664 H   0  0  0  0  0  0  0  0  0  0  0  0
    3.4180   -2.9909    1.8817 H   0  0  0  0  0  0  0  0  0  0  0  0
    3.3707   -2.3014    0.2315 H   0  0  0  0  0  0  0  0  0  0  0  0
    5.3596   -0.9079    0.7534 H   0  0  0  0  0  0  0  0  0  0  0  0
    5.3838   -1.5343    2.4061 H   0  0  0  0  0  0  0  0  0  0  0  0
    5.7217   -2.6170    1.0453 H   0  0  0  0  0  0  0  0  0  0  0  0
    0.3072   -1.9470    1.5189 H   0  0  0  0  0  0  0  0  0  0  0  0
   -0.6149   -2.4670    0.0599 H   0  0  0  0  0  0  0  0  0  0  0  0
   -0.3429    2.1491    0.0005 H   0  0  0  0  0  0  0  0  0  0  0  0
   -0.7392    3.0403   -1.4976 H   0  0  0  0  0  0  0  0  0  0  0  0
   -1.9935    3.9870    0.3902 H   0  0  0  0  0  0  0  0  0  0  0  0
   -3.1364    3.1690   -0.6939 H   0  0  0  0  0  0  0  0  0  0  0  0
   -2.6348    2.4002    0.8234 H   0  0  0  0  0  0  0  0  0  0  0  0
   -4.3085   -0.8178    0.8856 H   0  0  0  0  0  0  0  0  0  0  0  0
   -5.4406    0.4426    0.3235 H   0  0  0  0  0  0  0  0  0  0  0  0
   -6.2043   -1.8042   -0.4148 H   0  0  0  0  0  0  0  0  0  0  0  0
   -5.7519   -0.8175   -1.8154 H   0  0  0  0  0  0  0  0  0  0  0  0
   -4.6608   -2.0781   -1.2381 H   0  0  0  0  0  0  0  0  0  0  0  0
  1  2  1  0  0  0  0
  2  3  1  0  0  0  0
  3  4  2  0  0  0  0
  4  5  2  0  0  0  0
  4  6  2  0  0  0  0
  6  7  1  0  0  0  0
  7  8  1  0  0  0  0
  4  9  1  0  0  0  0
  9 10  1  0  0  0  0
 10 11  1  0  0  0  0
 11 12  1  0  0  0  0
 12 13  2  0  0  0  0
 12 14  2  0  0  0  0
 14 15  1  0  0  0  0
 15 16  1  0  0  0  0
 12 17  2  0  0  0  0
 17 18  1  0  0  0  0
 18 19  1  0  0  0  0
  1 20  1  0  0  0  0
  1 21  1  0  0  0  0
  1 22  1  0  0  0  0
  2 23  1  0  0  0  0
  2 24  1  0  0  0  0
  7 25  1  0  0  0  0
  7 26  1  0  0  0  0
  8 27  1  0  0  0  0
  8 28  1  0  0  0  0
  8 29  1  0  0  0  0
 10 30  1  0  0  0  0
 10 31  1  0  0  0  0
 15 32  1  0  0  0  0
 15 33  1  0  0  0  0
 16 34  1  0  0  0  0
 16 35  1  0  0  0  0
 16 36  1  0  0  0  0
 18 37  1  0  0  0  0
 18 38  1  0  0  0  0
 19 39  1  0  0  0  0
 19 40  1  0  0  0  0
 19 41  1  0  0  0  0
M  END
