 xtb: 6.7.1 (edcfbbe)
          04092505213D

 41 40  0     0  0            999 V2000
    4.4646    0.2456   -2.6088 C   0  0  0  0  0  0  0  0  0  0  0  0
    4.5488    0.0432   -1.1093 C   0  0  0  0  0  0  0  0  0  0  0  0
    3.6335    0.9381   -0.4290 O   0  0  0  0  0  0  0  0  0  0  0  0
    2.2995    0.4562    0.2774 P   0  0  0  0  0  0  0  0  0  0  0  0
    1.4695    1.9845    1.1607 S   0  0  0  0  0  0  0  0  0  0  0  0
    2.7194   -0.7564    1.2278 O   0  0  0  0  0  0  0  0  0  0  0  0
    2.6187   -0.7439    2.6690 C   0  0  0  0  0  0  0  0  0  0  0  0
    1.7132   -1.8642    3.1393 C   0  0  0  0  0  0  0  0  0  0  0  0
    1.2906   -0.5601   -1.2826 S   0  0  0  0  0  0  0  0  0  0  0  0
    0.2269   -1.6756   -0.3172 C   0  0  0  0  0  0  0  0  0  0  0  0
   -0.8951   -0.8379    0.8267 S   0  0  0  0  0  0  0  0  0  0  0  0
   -2.2368    0.0507   -0.5719 P   0  0  0  0  0  0  0  0  0  0  0  0
   -2.0462   -0.6176   -2.4037 S   0  0  0  0  0  0  0  0  0  0  0  0
   -2.0423    1.6135   -0.5225 O   0  0  0  0  0  0  0  0  0  0  0  0
   -2.5933    2.5064    0.4778 C   0  0  0  0  0  0  0  0  0  0  0  0
   -2.1647    2.1609    1.8877 C   0  0  0  0  0  0  0  0  0  0  0  0
   -3.6564   -0.1159    0.1260 O   0  0  0  0  0  0  0  0  0  0  0  0
   -4.2479   -1.3887    0.4513 C   0  0  0  0  0  0  0  0  0  0  0  0
   -4.9600   -2.0017   -0.7382 C   0  0  0  0  0  0  0  0  0  0  0  0
    3.4758   -0.0236   -2.9751 H   0  0  0  0  0  0  0  0  0  0  0  0
    4.6546    1.2869   -2.8543 H   0  0  0  0  0  0  0  0  0  0  0  0
    5.2066   -0.3797   -3.0951 H   0  0  0  0  0  0  0  0  0  0  0  0
    5.5355    0.3135   -0.7295 H   0  0  0  0  0  0  0  0  0  0  0  0
    4.3150   -0.9869   -0.8315 H   0  0  0  0  0  0  0  0  0  0  0  0
    3.6380   -0.8766    3.0371 H   0  0  0  0  0  0  0  0  0  0  0  0
    2.2400    0.2329    2.9874 H   0  0  0  0  0  0  0  0  0  0  0  0
    0.6941   -1.6993    2.7950 H   0  0  0  0  0  0  0  0  0  0  0  0
    2.0706   -2.8192    2.7643 H   0  0  0  0  0  0  0  0  0  0  0  0
    1.7185   -1.8839    4.2242 H   0  0  0  0  0  0  0  0  0  0  0  0
    0.8443   -2.3394    0.2824 H   0  0  0  0  0  0  0  0  0  0  0  0
   -0.3494   -2.2233   -1.0628 H   0  0  0  0  0  0  0  0  0  0  0  0
   -2.2100    3.4821    0.1753 H   0  0  0  0  0  0  0  0  0  0  0  0
   -3.6805    2.4828    0.3802 H   0  0  0  0  0  0  0  0  0  0  0  0
   -2.5314    1.1759    2.1700 H   0  0  0  0  0  0  0  0  0  0  0  0
   -1.0800    2.1719    1.9685 H   0  0  0  0  0  0  0  0  0  0  0  0
   -2.5749    2.8995    2.5689 H   0  0  0  0  0  0  0  0  0  0  0  0
   -3.4688   -2.0554    0.8320 H   0  0  0  0  0  0  0  0  0  0  0  0
   -4.9513   -1.1541    1.2529 H   0  0  0  0  0  0  0  0  0  0  0  0
   -4.2536   -2.2148   -1.5373 H   0  0  0  0  0  0  0  0  0  0  0  0
   -5.4384   -2.9256   -0.4297 H   0  0  0  0  0  0  0  0  0  0  0  0
   -5.7132   -1.3167   -1.1180 H   0  0  0  0  0  0  0  0  0  0  0  0
  1  2  1  0  0  0  0
  2  3  1  0  0  0  0
  3  4  2  0  0  0  0
  4  5  2  0  0  0  0
  4  6  2  0  0  0  0
  6  7  1  0  0  0  0
  7  8  1  0  0  0  0
  4  9  1  0  0  0  0
  9 10  1  0  0  0  0
 10 11  1  0  0  0  0
 11 12  1  0  0  0  0
 12 13  2  0  0  0  0
 12 14  2  0  0  0  0
 14 15  1  0  0  0  0
 15 16  1  0  0  0  0
 12 17  2  0  0  0  0
 17 18  1  0  0  0  0
 18 19  1  0  0  0  0
  1 20  1  0  0  0  0
  1 21  1  0  0  0  0
  1 22  1  0  0  0  0
  2 23  1  0  0  0  0
  2 24  1  0  0  0  0
  7 25  1  0  0  0  0
  7 26  1  0  0  0  0
  8 27  1  0  0  0  0
  8 28  1  0  0  0  0
  8 29  1  0  0  0  0
 10 30  1  0  0  0  0
 10 31  1  0  0  0  0
 15 32  1  0  0  0  0
 15 33  1  0  0  0  0
 16 34  1  0  0  0  0
 16 35  1  0  0  0  0
 16 36  1  0  0  0  0
 18 37  1  0  0  0  0
 18 38  1  0  0  0  0
 19 39  1  0  0  0  0
 19 40  1  0  0  0  0
 19 41  1  0  0  0  0
M  END
