 xtb: 6.7.1 (edcfbbe)
          04092505203D

 41 40  0     0  0            999 V2000
    4.0147    1.5387   -1.4110 C   0  0  0  0  0  0  0  0  0  0  0  0
    2.7735    0.8494   -1.9341 C   0  0  0  0  0  0  0  0  0  0  0  0
    2.4569   -0.3364   -1.1775 O   0  0  0  0  0  0  0  0  0  0  0  0
    2.0836   -0.3020    0.3568 P   0  0  0  0  0  0  0  0  0  0  0  0
    1.0642    1.2470    1.0037 S   0  0  0  0  0  0  0  0  0  0  0  0
    3.4964   -0.4675    1.0615 O   0  0  0  0  0  0  0  0  0  0  0  0
    3.6603   -0.3584    2.4897 C   0  0  0  0  0  0  0  0  0  0  0  0
    5.1180   -0.0549    2.7713 C   0  0  0  0  0  0  0  0  0  0  0  0
    1.2834   -2.2402    0.5859 S   0  0  0  0  0  0  0  0  0  0  0  0
   -0.3058   -2.0702   -0.2695 C   0  0  0  0  0  0  0  0  0  0  0  0
   -1.5428   -1.1482    0.6963 S   0  0  0  0  0  0  0  0  0  0  0  0
   -2.1549    0.2034   -0.8360 P   0  0  0  0  0  0  0  0  0  0  0  0
   -0.7830    0.7564   -2.1165 S   0  0  0  0  0  0  0  0  0  0  0  0
   -2.9479    1.3496   -0.0849 O   0  0  0  0  0  0  0  0  0  0  0  0
   -2.3439    2.3827    0.7186 C   0  0  0  0  0  0  0  0  0  0  0  0
   -2.3966    2.0220    2.1893 C   0  0  0  0  0  0  0  0  0  0  0  0
   -3.3016   -0.5586   -1.6031 O   0  0  0  0  0  0  0  0  0  0  0  0
   -4.4867   -1.0910   -0.9599 C   0  0  0  0  0  0  0  0  0  0  0  0
   -5.6417   -0.1166   -1.0645 C   0  0  0  0  0  0  0  0  0  0  0  0
    4.2695    2.3646   -2.0678 H   0  0  0  0  0  0  0  0  0  0  0  0
    3.8267    1.9269   -0.4105 H   0  0  0  0  0  0  0  0  0  0  0  0
    4.8432    0.8365   -1.3681 H   0  0  0  0  0  0  0  0  0  0  0  0
    2.9077    0.4763   -2.9503 H   0  0  0  0  0  0  0  0  0  0  0  0
    1.9072    1.5183   -1.9080 H   0  0  0  0  0  0  0  0  0  0  0  0
    3.0046    0.4389    2.8565 H   0  0  0  0  0  0  0  0  0  0  0  0
    3.3562   -1.3073    2.9390 H   0  0  0  0  0  0  0  0  0  0  0  0
    5.2687   -0.0020    3.8444 H   0  0  0  0  0  0  0  0  0  0  0  0
    5.7449   -0.8391    2.3570 H   0  0  0  0  0  0  0  0  0  0  0  0
    5.3983    0.8941    2.3227 H   0  0  0  0  0  0  0  0  0  0  0  0
   -0.6662   -3.0847   -0.4173 H   0  0  0  0  0  0  0  0  0  0  0  0
   -0.1527   -1.5548   -1.2210 H   0  0  0  0  0  0  0  0  0  0  0  0
   -1.3131    2.5448    0.3912 H   0  0  0  0  0  0  0  0  0  0  0  0
   -2.9363    3.2746    0.5063 H   0  0  0  0  0  0  0  0  0  0  0  0
   -2.0286    2.8622    2.7690 H   0  0  0  0  0  0  0  0  0  0  0  0
   -3.4169    1.7952    2.4846 H   0  0  0  0  0  0  0  0  0  0  0  0
   -1.7658    1.1594    2.3914 H   0  0  0  0  0  0  0  0  0  0  0  0
   -4.6963   -2.0142   -1.5031 H   0  0  0  0  0  0  0  0  0  0  0  0
   -4.2503   -1.3188    0.0834 H   0  0  0  0  0  0  0  0  0  0  0  0
   -5.4151    0.7985   -0.5245 H   0  0  0  0  0  0  0  0  0  0  0  0
   -5.8271    0.1295   -2.1065 H   0  0  0  0  0  0  0  0  0  0  0  0
   -6.5301   -0.5737   -0.6401 H   0  0  0  0  0  0  0  0  0  0  0  0
  1  2  1  0  0  0  0
  2  3  1  0  0  0  0
  3  4  2  0  0  0  0
  4  5  2  0  0  0  0
  4  6  2  0  0  0  0
  6  7  1  0  0  0  0
  7  8  1  0  0  0  0
  4  9  1  0  0  0  0
  9 10  1  0  0  0  0
 10 11  1  0  0  0  0
 11 12  1  0  0  0  0
 12 13  2  0  0  0  0
 12 14  2  0  0  0  0
 14 15  1  0  0  0  0
 15 16  1  0  0  0  0
 12 17  2  0  0  0  0
 17 18  1  0  0  0  0
 18 19  1  0  0  0  0
  1 20  1  0  0  0  0
  1 21  1  0  0  0  0
  1 22  1  0  0  0  0
  2 23  1  0  0  0  0
  2 24  1  0  0  0  0
  7 25  1  0  0  0  0
  7 26  1  0  0  0  0
  8 27  1  0  0  0  0
  8 28  1  0  0  0  0
  8 29  1  0  0  0  0
 10 30  1  0  0  0  0
 10 31  1  0  0  0  0
 15 32  1  0  0  0  0
 15 33  1  0  0  0  0
 16 34  1  0  0  0  0
 16 35  1  0  0  0  0
 16 36  1  0  0  0  0
 18 37  1  0  0  0  0
 18 38  1  0  0  0  0
 19 39  1  0  0  0  0
 19 40  1  0  0  0  0
 19 41  1  0  0  0  0
M  END
