38
 xtb: 6.7.1 (edcfbbe)
C            4.34689836037335       -2.12510200501158       -2.71940246498672
C            4.18382151034007       -1.10415115512895       -1.61895345808077
O            2.84294166036252       -1.18674319008936       -1.02762175706890
C            2.64015635428822       -2.13104106698790       -0.09995119140066
O            3.49320823179155       -2.90563672457109        0.29348266601082
C            1.21143329015634       -2.15417224718089        0.38896158344292
C            0.47766972026044       -0.83395402744282        0.19314226793900
H            0.30546346513595       -0.61553272194186       -0.86400733922338
C            1.20965280425363        0.31684806219457        0.85611101285817
O            1.98496835496424        0.17537150115247        1.78450189524807
O            0.88721384436819        1.48389914680853        0.29476875711480
C            1.46282102762574        2.69183218625336        0.90193291897747
C            0.65245567020642        3.12176153796738        2.10063250519203
S           -1.19159941946840       -0.97796492174058        0.99758231246406
P           -2.41596693629115        0.25256820966624       -0.24064055392244
S           -1.93959561513388        0.32800271735204       -2.11856534368887
O           -3.85867990695511       -0.34162692643902        0.16132403210717
C           -4.31741260191534       -1.59824235854240       -0.41569967435781
O           -2.49276545427466        1.71370994323389        0.41480987544081
C           -2.90634723428142        1.90031967803807        1.80301926218125
H            5.32854845927666       -1.98919997005597       -3.18420770493723
H            4.28931833494922       -3.14529103449764       -2.33135578442123
H            3.58177945770417       -1.99130632058039       -3.48942847173712
H            4.23242130739216       -0.08449713840115       -2.00432372102055
H            4.92182886870084       -1.22707569160619       -0.82270806952590
H            1.23561709821003       -2.45554442737490        1.43899413238858
H            0.69646502563913       -2.94340899971426       -0.17092456284800
H            2.50582933209130        2.48706032559473        1.15388536032373
H            1.42074417977026        3.42927676845249        0.09907348535403
H            1.10043197588020        4.02682631626432        2.52285056263589
H           -0.37618250290309        3.35196086497286        1.81196104113990
H            0.64532046697697        2.35074032367775        2.87606509504611
H           -5.26054046788204       -1.82053178970333        0.08288760794426
H           -3.59474089138399       -2.39596327170012       -0.22348248851817
H           -4.47440708286064       -1.47529071742381       -1.48973995558986
H           -3.92321253935301        1.52917377289081        1.94583591216643
H           -2.87156963852317        2.97585719763216        1.97316348816350
H           -2.21007524413926        1.39108647633702        2.47482780680291
