 xtb: 6.7.1 (edcfbbe)
          04092505203D

 41 40  0     0  0            999 V2000
    5.5387   -0.3379   -0.7099 C   0  0  0  0  0  0  0  0  0  0  0  0
    4.2575    0.2752   -1.2360 C   0  0  0  0  0  0  0  0  0  0  0  0
    3.4220    0.7430   -0.1465 O   0  0  0  0  0  0  0  0  0  0  0  0
    2.2817   -0.1126    0.5278 P   0  0  0  0  0  0  0  0  0  0  0  0
    1.5312    0.7934    2.0861 S   0  0  0  0  0  0  0  0  0  0  0  0
    2.9848   -1.5035    0.8450 O   0  0  0  0  0  0  0  0  0  0  0  0
    2.4226   -2.4485    1.7715 C   0  0  0  0  0  0  0  0  0  0  0  0
    1.2479   -3.1984    1.1754 C   0  0  0  0  0  0  0  0  0  0  0  0
    0.9884   -0.6250   -1.1004 S   0  0  0  0  0  0  0  0  0  0  0  0
    0.4654    1.0453   -1.5657 C   0  0  0  0  0  0  0  0  0  0  0  0
   -0.7307    1.7936   -0.4247 S   0  0  0  0  0  0  0  0  0  0  0  0
   -2.1738    0.2176   -0.4948 P   0  0  0  0  0  0  0  0  0  0  0  0
   -2.3053   -0.7188   -2.2046 S   0  0  0  0  0  0  0  0  0  0  0  0
   -3.4707    0.9452    0.0636 O   0  0  0  0  0  0  0  0  0  0  0  0
   -4.1098    2.0598   -0.5895 C   0  0  0  0  0  0  0  0  0  0  0  0
   -5.0656    1.6012   -1.6733 C   0  0  0  0  0  0  0  0  0  0  0  0
   -1.8258   -0.7764    0.6775 O   0  0  0  0  0  0  0  0  0  0  0  0
   -1.8496   -0.4016    2.0773 C   0  0  0  0  0  0  0  0  0  0  0  0
   -3.1461   -0.8447    2.7204 C   0  0  0  0  0  0  0  0  0  0  0  0
    6.0545    0.3713   -0.0683 H   0  0  0  0  0  0  0  0  0  0  0  0
    5.3214   -1.2356   -0.1378 H   0  0  0  0  0  0  0  0  0  0  0  0
    6.1785   -0.5937   -1.5488 H   0  0  0  0  0  0  0  0  0  0  0  0
    3.6914   -0.4433   -1.8350 H   0  0  0  0  0  0  0  0  0  0  0  0
    4.4612    1.1724   -1.8237 H   0  0  0  0  0  0  0  0  0  0  0  0
    3.2502   -3.1224    1.9977 H   0  0  0  0  0  0  0  0  0  0  0  0
    2.1252   -1.9096    2.6773 H   0  0  0  0  0  0  0  0  0  0  0  0
    0.9238   -3.9675    1.8692 H   0  0  0  0  0  0  0  0  0  0  0  0
    0.4153   -2.5216    0.9866 H   0  0  0  0  0  0  0  0  0  0  0  0
    1.5332   -3.6606    0.2337 H   0  0  0  0  0  0  0  0  0  0  0  0
    0.0040    0.9436   -2.5474 H   0  0  0  0  0  0  0  0  0  0  0  0
    1.3215    1.7161   -1.5936 H   0  0  0  0  0  0  0  0  0  0  0  0
   -4.6406    2.5699    0.2169 H   0  0  0  0  0  0  0  0  0  0  0  0
   -3.3412    2.7235   -0.9956 H   0  0  0  0  0  0  0  0  0  0  0  0
   -5.5712    2.4656   -2.0916 H   0  0  0  0  0  0  0  0  0  0  0  0
   -4.5242    1.0873   -2.4645 H   0  0  0  0  0  0  0  0  0  0  0  0
   -5.8027    0.9190   -1.2588 H   0  0  0  0  0  0  0  0  0  0  0  0
   -0.9893   -0.9080    2.5199 H   0  0  0  0  0  0  0  0  0  0  0  0
   -1.7032    0.6785    2.1637 H   0  0  0  0  0  0  0  0  0  0  0  0
   -3.1107   -0.6128    3.7802 H   0  0  0  0  0  0  0  0  0  0  0  0
   -3.9871   -0.3283    2.2654 H   0  0  0  0  0  0  0  0  0  0  0  0
   -3.2778   -1.9151    2.5887 H   0  0  0  0  0  0  0  0  0  0  0  0
  1  2  1  0  0  0  0
  2  3  1  0  0  0  0
  3  4  2  0  0  0  0
  4  5  2  0  0  0  0
  4  6  2  0  0  0  0
  6  7  1  0  0  0  0
  7  8  1  0  0  0  0
  4  9  1  0  0  0  0
  9 10  1  0  0  0  0
 10 11  1  0  0  0  0
 11 12  1  0  0  0  0
 12 13  2  0  0  0  0
 12 14  2  0  0  0  0
 14 15  1  0  0  0  0
 15 16  1  0  0  0  0
 12 17  2  0  0  0  0
 17 18  1  0  0  0  0
 18 19  1  0  0  0  0
  1 20  1  0  0  0  0
  1 21  1  0  0  0  0
  1 22  1  0  0  0  0
  2 23  1  0  0  0  0
  2 24  1  0  0  0  0
  7 25  1  0  0  0  0
  7 26  1  0  0  0  0
  8 27  1  0  0  0  0
  8 28  1  0  0  0  0
  8 29  1  0  0  0  0
 10 30  1  0  0  0  0
 10 31  1  0  0  0  0
 15 32  1  0  0  0  0
 15 33  1  0  0  0  0
 16 34  1  0  0  0  0
 16 35  1  0  0  0  0
 16 36  1  0  0  0  0
 18 37  1  0  0  0  0
 18 38  1  0  0  0  0
 19 39  1  0  0  0  0
 19 40  1  0  0  0  0
 19 41  1  0  0  0  0
M  END
