38
 xtb: 6.7.1 (edcfbbe)
C            3.68069034914447       -3.86692604915069       -0.74680464685703
C            4.26196549630162       -2.54893454268857       -1.20034689851900
O            3.24155367935329       -1.73011146984217       -1.86554363591483
C            2.42915441483868       -1.01362927183196       -1.07950271727160
O            2.48700046866016       -0.98980595028687        0.13809667592508
C            1.45245031763045       -0.20940386611251       -1.89983354850824
C            0.38147502823692        0.46564972088977       -1.04817369316753
H           -0.20993254136733        1.12397928484573       -1.69665985894974
C            1.01536599895016        1.36864867363235        0.00237464513644
O            1.94099198551326        2.10891222817510       -0.28247176145753
O            0.41722069403170        1.31454783072016        1.18398471409431
C            0.95444282084571        2.15628255048560        2.25713930506752
C            2.13801732237957        1.48200775259918        2.90847876781044
S           -0.77664964921610       -0.82759000054892       -0.40673915528110
P           -2.48514455769665        0.31235405397851        0.12104160408377
S           -2.81419350675233        1.90932845798365       -0.93523533067517
O           -3.60445124297389       -0.85082093825622        0.10917176174773
C           -4.12981743755179       -1.34554736639236       -1.15471963750974
O           -2.43859054284409        0.65226964440449        1.68818384479957
C           -2.03226606596429       -0.34083654151993        2.67534342724854
H            2.91021080767385       -3.72457198544690        0.01553120693596
H            3.25150408505548       -4.41290954491627       -1.59170000897428
H            4.48137960127686       -4.47648193080297       -0.31604514774628
H            5.02279518671102       -2.68868115670582       -1.96993237578970
H            4.68496821968605       -1.97368768882213       -0.37335264787352
H            1.00248484751207       -0.84173337084719       -2.66981441716037
H            2.02496931072742        0.56301799961244       -2.42581805707778
H            1.20409797448867        3.13573096959651        1.84247107845308
H            0.11408393229272        2.25470138234193        2.94717927787042
H            2.97228403232614        1.37541966829282        2.21015067604471
H            2.47206661622500        2.09286313285528        3.75298825309512
H            1.85962425055014        0.49438089309622        3.28733972183550
H           -3.32282164039964       -1.73998501438638       -1.77827609990539
H           -4.65808397134995       -0.54372141962796       -1.67634209997753
H           -4.82224528044828       -2.14471125832369       -0.89086300854550
H           -0.97834232005309       -0.59320619025191        2.53699780454292
H           -2.65665115203648       -1.23439971941811        2.60010176124092
H           -2.17911834496491        0.13830382478976        3.64333880563177
