 xtb: 6.7.1 (edcfbbe)
          04092507313D

 38 37  0     0  0            999 V2000
    2.6934   -3.5219   -0.2376 C   0  0  0  0  0  0  0  0  0  0  0  0
    3.2618   -2.1121   -0.2264 C   0  0  0  0  0  0  0  0  0  0  0  0
    2.3072   -1.1735   -0.7590 O   0  0  0  0  0  0  0  0  0  0  0  0
    2.2519   -1.0114   -2.0711 C   0  0  0  0  0  0  0  0  0  0  0  0
    2.9927   -1.5596   -2.8556 O   0  0  0  0  0  0  0  0  0  0  0  0
    1.1621   -0.0475   -2.4915 C   0  0  0  0  0  0  0  0  0  0  0  0
    0.3183    0.4511   -1.3275 C   0  0  0  0  0  0  0  0  0  0  0  0
   -0.3973    1.2039   -1.6816 H   0  0  0  0  0  0  0  0  0  0  0  0
    1.1872    1.1237   -0.2792 C   0  0  0  0  0  0  0  0  0  0  0  0
    2.1153    1.8426   -0.5703 O   0  0  0  0  0  0  0  0  0  0  0  0
    0.7965    0.8520    0.9481 O   0  0  0  0  0  0  0  0  0  0  0  0
    1.4959    1.4704    2.0463 C   0  0  0  0  0  0  0  0  0  0  0  0
    0.8315    2.7784    2.4396 C   0  0  0  0  0  0  0  0  0  0  0  0
   -0.6619   -0.9039   -0.6002 S   0  0  0  0  0  0  0  0  0  0  0  0
   -1.9613    0.2879    0.5917 P   0  0  0  0  0  0  0  0  0  0  0  0
   -2.1639    2.1615    0.0589 S   0  0  0  0  0  0  0  0  0  0  0  0
   -3.3215   -0.5598    0.5409 O   0  0  0  0  0  0  0  0  0  0  0  0
   -4.0856   -0.6629   -0.6646 C   0  0  0  0  0  0  0  0  0  0  0  0
   -1.5929    0.1142    2.1169 O   0  0  0  0  0  0  0  0  0  0  0  0
   -1.4206   -1.1828    2.7197 C   0  0  0  0  0  0  0  0  0  0  0  0
    3.3906   -4.1931    0.2526 H   0  0  0  0  0  0  0  0  0  0  0  0
    1.7402   -3.5451    0.2836 H   0  0  0  0  0  0  0  0  0  0  0  0
    2.5423   -3.8534   -1.2620 H   0  0  0  0  0  0  0  0  0  0  0  0
    4.1760   -2.0545   -0.8238 H   0  0  0  0  0  0  0  0  0  0  0  0
    3.4509   -1.7638    0.7894 H   0  0  0  0  0  0  0  0  0  0  0  0
    0.5402   -0.5438   -3.2379 H   0  0  0  0  0  0  0  0  0  0  0  0
    1.6506    0.8052   -2.9699 H   0  0  0  0  0  0  0  0  0  0  0  0
    1.4420    0.7402    2.8541 H   0  0  0  0  0  0  0  0  0  0  0  0
    2.5328    1.6337    1.7396 H   0  0  0  0  0  0  0  0  0  0  0  0
    1.3317    3.1899    3.3097 H   0  0  0  0  0  0  0  0  0  0  0  0
    0.8925    3.4931    1.6215 H   0  0  0  0  0  0  0  0  0  0  0  0
   -0.2176    2.6089    2.6721 H   0  0  0  0  0  0  0  0  0  0  0  0
   -4.2518    0.3281   -1.0900 H   0  0  0  0  0  0  0  0  0  0  0  0
   -5.0312   -1.1140   -0.3751 H   0  0  0  0  0  0  0  0  0  0  0  0
   -3.5621   -1.2940   -1.3826 H   0  0  0  0  0  0  0  0  0  0  0  0
   -2.3508   -1.7450    2.6679 H   0  0  0  0  0  0  0  0  0  0  0  0
   -1.1480   -0.9830    3.7527 H   0  0  0  0  0  0  0  0  0  0  0  0
   -0.6268   -1.7252    2.2066 H   0  0  0  0  0  0  0  0  0  0  0  0
  1  2  1  0  0  0  0
  2  3  1  0  0  0  0
  3  4  1  0  0  0  0
  4  5  2  0  0  0  0
  4  6  1  0  0  0  0
  6  7  1  0  0  0  0
  7  8  1  0  0  0  0
  7  9  1  0  0  0  0
  9 10  2  0  0  0  0
  9 11  1  0  0  0  0
 11 12  1  0  0  0  0
 12 13  1  0  0  0  0
  7 14  1  0  0  0  0
 14 15  1  0  0  0  0
 15 16  2  0  0  0  0
 15 17  1  0  0  0  0
 17 18  1  0  0  0  0
 15 19  2  0  0  0  0
 19 20  1  0  0  0  0
  1 21  1  0  0  0  0
  1 22  1  0  0  0  0
  1 23  1  0  0  0  0
  2 24  1  0  0  0  0
  2 25  1  0  0  0  0
  6 26  1  0  0  0  0
  6 27  1  0  0  0  0
 12 28  1  0  0  0  0
 12 29  1  0  0  0  0
 13 30  1  0  0  0  0
 13 31  1  0  0  0  0
 13 32  1  0  0  0  0
 18 33  1  0  0  0  0
 18 34  1  0  0  0  0
 18 35  1  0  0  0  0
 20 36  1  0  0  0  0
 20 37  1  0  0  0  0
 20 38  1  0  0  0  0
M  END
