  17
 
 C         -0.0003627986        0.5750098890       -0.0001971531
 C         -1.2509967805       -0.2941254232       -0.0007451186
 O         -2.3677434271        0.5990464552        0.0004285459
 N         -3.5991540601        0.0347353528        0.0007216552
 O         -3.6589406819       -1.1563061973       -0.0005288324
 O         -4.4941483823        0.8197511624        0.0010903887
 C          1.2508201118       -0.2932855611       -0.0026262992
 O          2.3669972210        0.6006271126        0.0000300295
 N          3.5987182930        0.0368894370       -0.0000429567
 O          3.6590425922       -1.1541416217       -0.0017294770
 O          4.4934446121        0.8222248228        0.0027236273
 H         -0.0013530400        1.2156275092       -0.8805458187
 H          0.0001874580        1.2124660117        0.8824418634
 H         -1.3001914090       -0.9286491766       -0.8907255113
 H         -1.2997498276       -0.9304568998        0.8879649263
 H          1.3003250291       -0.9261315027       -0.8937471420
 H          1.3000985842       -0.9311514202        0.8849350909
          17
        -39.51312797
 C          0.6850911369        2.1387216109       -0.4114837690
 C         -0.6461543915        1.6314734039        0.1252418840
 O         -0.8805316548        0.3381178427       -0.4583796859
 N         -2.0206453008       -0.2951247694       -0.1093412527
 O         -2.7615480779        0.2703472381        0.6337310158
 O         -2.1459736542       -1.3739546363       -0.6010672747
 C          1.8902266375        1.3744526379        0.1323876417
 O          2.0068865131        0.0709494784       -0.4522622411
 N          1.4752648288       -0.9847174102        0.2000565693
 O          0.9452570421       -0.7953082604        1.2532735283
 O          1.6114647749       -2.0217578036       -0.3702068241
 H          0.6814908117        2.0669281513       -1.4986334700
 H          0.7885568764        3.1822101618       -0.1224590560
 H         -0.6342450546        1.5256259054        1.2144533420
 H         -1.4649778033        2.2966590187       -0.1606188169
 H          1.8409722983        1.2780471270        1.2202237683
 H          2.8145799996        1.8715771541       -0.1609448825
