41
 xtb: 6.7.1 (edcfbbe)
C            4.30404487042727       -1.01776959156580       -2.87220486040108
C            4.49122543881213       -1.42462215549021       -1.43196764636976
O            3.21121374814103       -1.55266210223857       -0.72060722386871
P            2.36594545918290       -0.28367564133245       -0.19930963315823
S            3.37534899891609        1.31662821492336        0.26382160368484
O            1.48510107474407       -0.95792915563012        0.96203619838346
C            2.07225064062417       -1.25980263895498        2.27711156328249
C            0.92823127065990       -1.42844735038702        3.24325410947253
S            0.90553889894373       -0.08117793993132       -1.71843349620824
C            0.24821845543882        1.59853166232278       -1.37854725908758
S           -0.62176918228396        1.88554354979615        0.21256708057795
P           -2.28193238658024        0.58552796295277        0.03285204884267
S           -3.03090847483116        0.37601761982871       -1.75412723584459
O           -3.27401738818221        1.14343357585145        1.17491906161381
C           -4.39951326186080        2.04465674717193        0.88729607802338
C           -3.95036557109815        3.47133344315377        0.69354520394036
O           -1.70356984458598       -0.72901660368653        0.74849737340136
C           -2.51773911988878       -1.95484945665388        0.83831336611567
C           -1.69798734956696       -3.10319419101791        0.30935007560603
H            5.27899829125056       -1.04676024768609       -3.36986120494858
H            3.63185128558905       -1.70672465306544       -3.39187443827875
H            3.90993099457639       -0.00109589623316       -2.95653255853791
H            5.11739670903058       -0.71451075154394       -0.88391435735464
H            4.92737476673271       -2.42217315676406       -1.34971269848696
H            2.66530058315504       -2.17362724371543        2.17335029801692
H            2.72748871414559       -0.43272421265286        2.56813722729299
H            0.35317667234645       -0.50217474584137        3.33143967692149
H            0.25971001015975       -2.23474764369616        2.92732135381908
H            1.33155331238853       -1.68100938933043        4.22874253173225
H           -0.43243277913093        1.80856435661509       -2.20857023204735
H            1.06932905728654        2.32155074582572       -1.38756273928739
H           -4.93083729932602        1.65976270801379        0.01196997379933
H           -5.03822805673385        1.94074226174902        1.76665448335320
H           -3.34977974549657        3.58657635354749       -0.21307491168161
H           -4.83861435968343        4.10414894740022        0.59572167501424
H           -3.37156610849089        3.82184759163607        1.55304799659656
H           -2.76474547440653       -2.07388450450501        1.89660996075298
H           -3.44271323600590       -1.82409874573586        0.26814626682413
H           -0.75820091753664       -3.19798802624334        0.86119061403047
H           -2.26446810284404       -4.03232700113886        0.42845799887814
H           -1.47465400295567       -2.96541218095990       -0.75263809461989
