 xtb: 6.7.1 (edcfbbe)
          04092514033D

 41 40  0     0  0            999 V2000
    4.6386    2.1967   -0.0254 C   0  0  0  0  0  0  0  0  0  0  0  0
    4.7866    0.7392   -0.4137 C   0  0  0  0  0  0  0  0  0  0  0  0
    3.5467    0.1520   -0.8539 O   0  0  0  0  0  0  0  0  0  0  0  0
    2.3555   -0.2428    0.1213 P   0  0  0  0  0  0  0  0  0  0  0  0
    2.8930   -0.8418    1.9105 S   0  0  0  0  0  0  0  0  0  0  0  0
    1.5448   -1.2920   -0.7467 O   0  0  0  0  0  0  0  0  0  0  0  0
    1.6693   -2.7179   -0.5888 C   0  0  0  0  0  0  0  0  0  0  0  0
    2.9315   -3.2545   -1.2313 C   0  0  0  0  0  0  0  0  0  0  0  0
    1.0302    1.3926   -0.0016 S   0  0  0  0  0  0  0  0  0  0  0  0
   -0.0046    0.9929    1.4374 C   0  0  0  0  0  0  0  0  0  0  0  0
   -1.0722   -0.4682    1.2526 S   0  0  0  0  0  0  0  0  0  0  0  0
   -2.2921    0.0873   -0.3928 P   0  0  0  0  0  0  0  0  0  0  0  0
   -1.6629   -0.2661   -2.2068 S   0  0  0  0  0  0  0  0  0  0  0  0
   -2.5669    1.6203   -0.0267 O   0  0  0  0  0  0  0  0  0  0  0  0
   -2.8101    2.6161   -1.0410 C   0  0  0  0  0  0  0  0  0  0  0  0
   -4.2111    2.5074   -1.6091 C   0  0  0  0  0  0  0  0  0  0  0  0
   -3.6394   -0.7052   -0.1220 O   0  0  0  0  0  0  0  0  0  0  0  0
   -4.4257   -0.5593    1.0897 C   0  0  0  0  0  0  0  0  0  0  0  0
   -4.4450   -1.8651    1.8587 C   0  0  0  0  0  0  0  0  0  0  0  0
    4.1727    2.7595   -0.8301 H   0  0  0  0  0  0  0  0  0  0  0  0
    4.0266    2.2891    0.8703 H   0  0  0  0  0  0  0  0  0  0  0  0
    5.6230    2.6088    0.1763 H   0  0  0  0  0  0  0  0  0  0  0  0
    5.1673    0.1543    0.4299 H   0  0  0  0  0  0  0  0  0  0  0  0
    5.4476    0.6223   -1.2742 H   0  0  0  0  0  0  0  0  0  0  0  0
    1.6476   -2.9510    0.4815 H   0  0  0  0  0  0  0  0  0  0  0  0
    0.7724   -3.1124   -1.0700 H   0  0  0  0  0  0  0  0  0  0  0  0
    2.9255   -4.3388   -1.1709 H   0  0  0  0  0  0  0  0  0  0  0  0
    2.9805   -2.9517   -2.2739 H   0  0  0  0  0  0  0  0  0  0  0  0
    3.8090   -2.8748   -0.7099 H   0  0  0  0  0  0  0  0  0  0  0  0
   -0.6202    1.8686    1.6227 H   0  0  0  0  0  0  0  0  0  0  0  0
    0.6330    0.7672    2.2929 H   0  0  0  0  0  0  0  0  0  0  0  0
   -2.6564    3.5646   -0.5246 H   0  0  0  0  0  0  0  0  0  0  0  0
   -2.0641    2.4977   -1.8326 H   0  0  0  0  0  0  0  0  0  0  0  0
   -4.9526    2.5855   -0.8182 H   0  0  0  0  0  0  0  0  0  0  0  0
   -4.3671    3.3084   -2.3254 H   0  0  0  0  0  0  0  0  0  0  0  0
   -4.3321    1.5516   -2.1181 H   0  0  0  0  0  0  0  0  0  0  0  0
   -4.0099    0.2506    1.6936 H   0  0  0  0  0  0  0  0  0  0  0  0
   -5.4275   -0.2884    0.7511 H   0  0  0  0  0  0  0  0  0  0  0  0
   -5.0939   -1.7584    2.7226 H   0  0  0  0  0  0  0  0  0  0  0  0
   -4.8208   -2.6643    1.2260 H   0  0  0  0  0  0  0  0  0  0  0  0
   -3.4429   -2.1236    2.1936 H   0  0  0  0  0  0  0  0  0  0  0  0
  1  2  1  0  0  0  0
  2  3  1  0  0  0  0
  3  4  2  0  0  0  0
  4  5  2  0  0  0  0
  4  6  2  0  0  0  0
  6  7  1  0  0  0  0
  7  8  1  0  0  0  0
  4  9  1  0  0  0  0
  9 10  1  0  0  0  0
 10 11  1  0  0  0  0
 11 12  1  0  0  0  0
 12 13  2  0  0  0  0
 12 14  1  0  0  0  0
 14 15  1  0  0  0  0
 15 16  1  0  0  0  0
 12 17  2  0  0  0  0
 17 18  1  0  0  0  0
 18 19  1  0  0  0  0
  1 20  1  0  0  0  0
  1 21  1  0  0  0  0
  1 22  1  0  0  0  0
  2 23  1  0  0  0  0
  2 24  1  0  0  0  0
  7 25  1  0  0  0  0
  7 26  1  0  0  0  0
  8 27  1  0  0  0  0
  8 28  1  0  0  0  0
  8 29  1  0  0  0  0
 10 30  1  0  0  0  0
 10 31  1  0  0  0  0
 15 32  1  0  0  0  0
 15 33  1  0  0  0  0
 16 34  1  0  0  0  0
 16 35  1  0  0  0  0
 16 36  1  0  0  0  0
 18 37  1  0  0  0  0
 18 38  1  0  0  0  0
 19 39  1  0  0  0  0
 19 40  1  0  0  0  0
 19 41  1  0  0  0  0
M  END
