 xtb: 6.7.1 (edcfbbe)
          04092509473D

 38 37  0     0  0            999 V2000
    2.6741   -2.7929    0.5158 C   0  0  0  0  0  0  0  0  0  0  0  0
    3.4127   -1.7471   -0.3034 C   0  0  0  0  0  0  0  0  0  0  0  0
    2.4788   -0.8101   -0.8802 O   0  0  0  0  0  0  0  0  0  0  0  0
    2.0679   -1.0109   -2.1208 C   0  0  0  0  0  0  0  0  0  0  0  0
    2.4705   -1.8986   -2.8378 O   0  0  0  0  0  0  0  0  0  0  0  0
    1.0522    0.0215   -2.5699 C   0  0  0  0  0  0  0  0  0  0  0  0
    0.1756    0.5407   -1.4329 C   0  0  0  0  0  0  0  0  0  0  0  0
   -0.5690    1.2367   -1.8369 H   0  0  0  0  0  0  0  0  0  0  0  0
    1.0146    1.3259   -0.4396 C   0  0  0  0  0  0  0  0  0  0  0  0
    1.7395    2.2228   -0.8099 O   0  0  0  0  0  0  0  0  0  0  0  0
    0.8661    0.9628    0.8139 O   0  0  0  0  0  0  0  0  0  0  0  0
    1.6868    1.6622    1.7775 C   0  0  0  0  0  0  0  0  0  0  0  0
    1.6580    0.9189    3.0962 C   0  0  0  0  0  0  0  0  0  0  0  0
   -0.7271   -0.8474   -0.6720 S   0  0  0  0  0  0  0  0  0  0  0  0
   -2.0732    0.2633    0.5414 P   0  0  0  0  0  0  0  0  0  0  0  0
   -2.3377    2.1442    0.0671 S   0  0  0  0  0  0  0  0  0  0  0  0
   -3.3996   -0.6363    0.5054 O   0  0  0  0  0  0  0  0  0  0  0  0
   -4.2513   -0.7103   -0.6433 C   0  0  0  0  0  0  0  0  0  0  0  0
   -1.6401    0.0589    2.0449 O   0  0  0  0  0  0  0  0  0  0  0  0
   -1.3923   -1.2582    2.5767 C   0  0  0  0  0  0  0  0  0  0  0  0
    2.0770   -2.3115    1.2854 H   0  0  0  0  0  0  0  0  0  0  0  0
    2.0171   -3.3745   -0.1266 H   0  0  0  0  0  0  0  0  0  0  0  0
    3.3945   -3.4569    0.9823 H   0  0  0  0  0  0  0  0  0  0  0  0
    3.9816   -2.2123   -1.1132 H   0  0  0  0  0  0  0  0  0  0  0  0
    4.0725   -1.1425    0.3204 H   0  0  0  0  0  0  0  0  0  0  0  0
    0.4449   -0.4249   -3.3568 H   0  0  0  0  0  0  0  0  0  0  0  0
    1.6058    0.8675   -2.9876 H   0  0  0  0  0  0  0  0  0  0  0  0
    2.6988    1.7254    1.3647 H   0  0  0  0  0  0  0  0  0  0  0  0
    1.2919    2.6781    1.8766 H   0  0  0  0  0  0  0  0  0  0  0  0
    0.6413    0.8754    3.4742 H   0  0  0  0  0  0  0  0  0  0  0  0
    2.0411   -0.0895    2.9715 H   0  0  0  0  0  0  0  0  0  0  0  0
    2.2807    1.4504    3.8089 H   0  0  0  0  0  0  0  0  0  0  0  0
   -4.5476    0.2913   -0.9579 H   0  0  0  0  0  0  0  0  0  0  0  0
   -5.1218   -1.2790   -0.3242 H   0  0  0  0  0  0  0  0  0  0  0  0
   -3.7407   -1.2219   -1.4589 H   0  0  0  0  0  0  0  0  0  0  0  0
   -1.0131   -1.0979    3.5822 H   0  0  0  0  0  0  0  0  0  0  0  0
   -0.6528   -1.7697    1.9605 H   0  0  0  0  0  0  0  0  0  0  0  0
   -2.3174   -1.8303    2.5987 H   0  0  0  0  0  0  0  0  0  0  0  0
  1  2  1  0  0  0  0
  2  3  1  0  0  0  0
  3  4  1  0  0  0  0
  4  5  2  0  0  0  0
  4  6  1  0  0  0  0
  6  7  1  0  0  0  0
  7  8  1  0  0  0  0
  7  9  1  0  0  0  0
  9 10  2  0  0  0  0
  9 11  1  0  0  0  0
 11 12  1  0  0  0  0
 12 13  1  0  0  0  0
  7 14  1  0  0  0  0
 14 15  1  0  0  0  0
 15 16  2  0  0  0  0
 15 17  1  0  0  0  0
 17 18  1  0  0  0  0
 15 19  2  0  0  0  0
 19 20  1  0  0  0  0
  1 21  1  0  0  0  0
  1 22  1  0  0  0  0
  1 23  1  0  0  0  0
  2 24  1  0  0  0  0
  2 25  1  0  0  0  0
  6 26  1  0  0  0  0
  6 27  1  0  0  0  0
 12 28  1  0  0  0  0
 12 29  1  0  0  0  0
 13 30  1  0  0  0  0
 13 31  1  0  0  0  0
 13 32  1  0  0  0  0
 18 33  1  0  0  0  0
 18 34  1  0  0  0  0
 18 35  1  0  0  0  0
 20 36  1  0  0  0  0
 20 37  1  0  0  0  0
 20 38  1  0  0  0  0
M  END
