 xtb: 6.7.1 (edcfbbe)
          04092505203D

 41 40  0     0  0            999 V2000
    3.5205    1.6292   -1.6547 C   0  0  0  0  0  0  0  0  0  0  0  0
    2.1087    1.7632   -1.1261 C   0  0  0  0  0  0  0  0  0  0  0  0
    1.5403    0.4858   -0.7792 O   0  0  0  0  0  0  0  0  0  0  0  0
    2.0967   -0.4181    0.3925 P   0  0  0  0  0  0  0  0  0  0  0  0
    2.8378    0.5238    1.9469 S   0  0  0  0  0  0  0  0  0  0  0  0
    3.1138   -1.3666   -0.3732 O   0  0  0  0  0  0  0  0  0  0  0  0
    4.0932   -2.1634    0.3171 C   0  0  0  0  0  0  0  0  0  0  0  0
    3.4572   -3.2787    1.1216 C   0  0  0  0  0  0  0  0  0  0  0  0
    0.4014   -1.6305    0.7243 S   0  0  0  0  0  0  0  0  0  0  0  0
   -0.3841   -0.5500    1.9495 C   0  0  0  0  0  0  0  0  0  0  0  0
   -0.9229    1.0485    1.2762 S   0  0  0  0  0  0  0  0  0  0  0  0
   -2.1133    0.3916   -0.3592 P   0  0  0  0  0  0  0  0  0  0  0  0
   -1.3174    0.1218   -2.1345 S   0  0  0  0  0  0  0  0  0  0  0  0
   -3.3086    1.4437   -0.3706 O   0  0  0  0  0  0  0  0  0  0  0  0
   -3.2461    2.6588   -1.1319 C   0  0  0  0  0  0  0  0  0  0  0  0
   -2.2411    3.6309   -0.5477 C   0  0  0  0  0  0  0  0  0  0  0  0
   -2.7851   -0.8706    0.3168 O   0  0  0  0  0  0  0  0  0  0  0  0
   -3.3423   -1.9455   -0.4690 C   0  0  0  0  0  0  0  0  0  0  0  0
   -4.6210   -1.5228   -1.1604 C   0  0  0  0  0  0  0  0  0  0  0  0
    4.1787    1.2708   -0.8636 H   0  0  0  0  0  0  0  0  0  0  0  0
    3.5441    0.9231   -2.4809 H   0  0  0  0  0  0  0  0  0  0  0  0
    3.8708    2.5987   -1.9946 H   0  0  0  0  0  0  0  0  0  0  0  0
    1.4257    2.1487   -1.8856 H   0  0  0  0  0  0  0  0  0  0  0  0
    2.0815    2.4037   -0.2381 H   0  0  0  0  0  0  0  0  0  0  0  0
    4.7249   -2.5516   -0.4829 H   0  0  0  0  0  0  0  0  0  0  0  0
    4.6764   -1.5046    0.9685 H   0  0  0  0  0  0  0  0  0  0  0  0
    4.2347   -3.9220    1.5209 H   0  0  0  0  0  0  0  0  0  0  0  0
    2.8840   -2.8614    1.9487 H   0  0  0  0  0  0  0  0  0  0  0  0
    2.7897   -3.8638    0.4938 H   0  0  0  0  0  0  0  0  0  0  0  0
    0.3341   -0.3075    2.7340 H   0  0  0  0  0  0  0  0  0  0  0  0
   -1.2399   -1.0888    2.3464 H   0  0  0  0  0  0  0  0  0  0  0  0
   -2.9836    2.4071   -2.1653 H   0  0  0  0  0  0  0  0  0  0  0  0
   -4.2623    3.0527   -1.0906 H   0  0  0  0  0  0  0  0  0  0  0  0
   -2.2590    4.5579   -1.1114 H   0  0  0  0  0  0  0  0  0  0  0  0
   -2.4719    3.8340    0.4949 H   0  0  0  0  0  0  0  0  0  0  0  0
   -1.2400    3.2006   -0.6021 H   0  0  0  0  0  0  0  0  0  0  0  0
   -2.5924   -2.2670   -1.1992 H   0  0  0  0  0  0  0  0  0  0  0  0
   -3.5143   -2.7400    0.2581 H   0  0  0  0  0  0  0  0  0  0  0  0
   -5.0618   -2.3807   -1.6582 H   0  0  0  0  0  0  0  0  0  0  0  0
   -5.3241   -1.1209   -0.4359 H   0  0  0  0  0  0  0  0  0  0  0  0
   -4.4025   -0.7557   -1.9022 H   0  0  0  0  0  0  0  0  0  0  0  0
  1  2  1  0  0  0  0
  2  3  1  0  0  0  0
  3  4  2  0  0  0  0
  4  5  2  0  0  0  0
  4  6  2  0  0  0  0
  6  7  1  0  0  0  0
  7  8  1  0  0  0  0
  4  9  1  0  0  0  0
  9 10  1  0  0  0  0
 10 11  1  0  0  0  0
 11 12  1  0  0  0  0
 12 13  2  0  0  0  0
 12 14  2  0  0  0  0
 14 15  1  0  0  0  0
 15 16  1  0  0  0  0
 12 17  2  0  0  0  0
 17 18  1  0  0  0  0
 18 19  1  0  0  0  0
  1 20  1  0  0  0  0
  1 21  1  0  0  0  0
  1 22  1  0  0  0  0
  2 23  1  0  0  0  0
  2 24  1  0  0  0  0
  7 25  1  0  0  0  0
  7 26  1  0  0  0  0
  8 27  1  0  0  0  0
  8 28  1  0  0  0  0
  8 29  1  0  0  0  0
 10 30  1  0  0  0  0
 10 31  1  0  0  0  0
 15 32  1  0  0  0  0
 15 33  1  0  0  0  0
 16 34  1  0  0  0  0
 16 35  1  0  0  0  0
 16 36  1  0  0  0  0
 18 37  1  0  0  0  0
 18 38  1  0  0  0  0
 19 39  1  0  0  0  0
 19 40  1  0  0  0  0
 19 41  1  0  0  0  0
M  END
