 xtb: 6.7.1 (edcfbbe)
          04092505203D

 41 40  0     0  0            999 V2000
    4.3509   -1.7340   -1.2057 C   0  0  0  0  0  0  0  0  0  0  0  0
    4.6689   -0.4872   -0.4052 C   0  0  0  0  0  0  0  0  0  0  0  0
    3.6100   -0.1349    0.5001 O   0  0  0  0  0  0  0  0  0  0  0  0
    2.1783    0.3510    0.0021 P   0  0  0  0  0  0  0  0  0  0  0  0
    2.2278    1.5081   -1.5849 S   0  0  0  0  0  0  0  0  0  0  0  0
    1.5947    0.9472    1.3503 O   0  0  0  0  0  0  0  0  0  0  0  0
    1.7386    2.3339    1.7101 C   0  0  0  0  0  0  0  0  0  0  0  0
    3.1864    2.7245    1.9162 C   0  0  0  0  0  0  0  0  0  0  0  0
    1.0694   -1.4343   -0.1094 S   0  0  0  0  0  0  0  0  0  0  0  0
    0.0236   -1.0982   -1.5763 C   0  0  0  0  0  0  0  0  0  0  0  0
   -1.7054   -1.5263   -1.3104 S   0  0  0  0  0  0  0  0  0  0  0  0
   -2.3209    0.1424   -0.1268 P   0  0  0  0  0  0  0  0  0  0  0  0
   -1.1494    1.7099   -0.1812 S   0  0  0  0  0  0  0  0  0  0  0  0
   -2.6260   -0.4138    1.3348 O   0  0  0  0  0  0  0  0  0  0  0  0
   -1.6152   -0.7614    2.2978 C   0  0  0  0  0  0  0  0  0  0  0  0
   -1.4184   -2.2644    2.3502 C   0  0  0  0  0  0  0  0  0  0  0  0
   -3.7567    0.4834   -0.6600 O   0  0  0  0  0  0  0  0  0  0  0  0
   -4.8005   -0.4917   -0.9168 C   0  0  0  0  0  0  0  0  0  0  0  0
   -5.6097   -0.7837    0.3293 C   0  0  0  0  0  0  0  0  0  0  0  0
    4.0577   -2.5448   -0.5437 H   0  0  0  0  0  0  0  0  0  0  0  0
    3.5354   -1.5301   -1.8988 H   0  0  0  0  0  0  0  0  0  0  0  0
    5.2276   -2.0287   -1.7734 H   0  0  0  0  0  0  0  0  0  0  0  0
    4.8466    0.3610   -1.0742 H   0  0  0  0  0  0  0  0  0  0  0  0
    5.5309   -0.6352    0.2465 H   0  0  0  0  0  0  0  0  0  0  0  0
    1.2718    2.9402    0.9262 H   0  0  0  0  0  0  0  0  0  0  0  0
    1.1574    2.4249    2.6290 H   0  0  0  0  0  0  0  0  0  0  0  0
    3.6562    2.0550    2.6322 H   0  0  0  0  0  0  0  0  0  0  0  0
    3.7243    2.6660    0.9704 H   0  0  0  0  0  0  0  0  0  0  0  0
    3.2331    3.7443    2.2850 H   0  0  0  0  0  0  0  0  0  0  0  0
    0.3609   -1.7343   -2.3905 H   0  0  0  0  0  0  0  0  0  0  0  0
    0.1161   -0.0401   -1.8333 H   0  0  0  0  0  0  0  0  0  0  0  0
   -0.6828   -0.2419    2.0520 H   0  0  0  0  0  0  0  0  0  0  0  0
   -1.9934   -0.3793    3.2482 H   0  0  0  0  0  0  0  0  0  0  0  0
   -2.3631   -2.7552    2.5654 H   0  0  0  0  0  0  0  0  0  0  0  0
   -1.0320   -2.6373    1.4044 H   0  0  0  0  0  0  0  0  0  0  0  0
   -0.7046   -2.4989    3.1331 H   0  0  0  0  0  0  0  0  0  0  0  0
   -5.4118   -0.0183   -1.6870 H   0  0  0  0  0  0  0  0  0  0  0  0
   -4.3406   -1.4001   -1.3150 H   0  0  0  0  0  0  0  0  0  0  0  0
   -4.9897   -1.2609    1.0826 H   0  0  0  0  0  0  0  0  0  0  0  0
   -6.0097    0.1399    0.7390 H   0  0  0  0  0  0  0  0  0  0  0  0
   -6.4302   -1.4452    0.0689 H   0  0  0  0  0  0  0  0  0  0  0  0
  1  2  1  0  0  0  0
  2  3  1  0  0  0  0
  3  4  2  0  0  0  0
  4  5  2  0  0  0  0
  4  6  2  0  0  0  0
  6  7  1  0  0  0  0
  7  8  1  0  0  0  0
  4  9  1  0  0  0  0
  9 10  1  0  0  0  0
 10 11  1  0  0  0  0
 11 12  1  0  0  0  0
 12 13  2  0  0  0  0
 12 14  2  0  0  0  0
 14 15  1  0  0  0  0
 15 16  1  0  0  0  0
 12 17  2  0  0  0  0
 17 18  1  0  0  0  0
 18 19  1  0  0  0  0
  1 20  1  0  0  0  0
  1 21  1  0  0  0  0
  1 22  1  0  0  0  0
  2 23  1  0  0  0  0
  2 24  1  0  0  0  0
  7 25  1  0  0  0  0
  7 26  1  0  0  0  0
  8 27  1  0  0  0  0
  8 28  1  0  0  0  0
  8 29  1  0  0  0  0
 10 30  1  0  0  0  0
 10 31  1  0  0  0  0
 15 32  1  0  0  0  0
 15 33  1  0  0  0  0
 16 34  1  0  0  0  0
 16 35  1  0  0  0  0
 16 36  1  0  0  0  0
 18 37  1  0  0  0  0
 18 38  1  0  0  0  0
 19 39  1  0  0  0  0
 19 40  1  0  0  0  0
 19 41  1  0  0  0  0
M  END
