 xtb: 6.7.1 (edcfbbe)
          04092513593D

 41 40  0     0  0            999 V2000
    3.0837    1.9836    2.7660 C   0  0  0  0  0  0  0  0  0  0  0  0
    1.8002    1.2199    2.5149 C   0  0  0  0  0  0  0  0  0  0  0  0
    1.5555    1.0517    1.1050 O   0  0  0  0  0  0  0  0  0  0  0  0
    2.3353    0.0040    0.2072 P   0  0  0  0  0  0  0  0  0  0  0  0
    2.9793   -1.5746    1.1844 S   0  0  0  0  0  0  0  0  0  0  0  0
    3.4207    0.9456   -0.4701 O   0  0  0  0  0  0  0  0  0  0  0  0
    4.1012    0.7013   -1.7147 C   0  0  0  0  0  0  0  0  0  0  0  0
    4.8821   -0.5973   -1.7233 C   0  0  0  0  0  0  0  0  0  0  0  0
    0.9428   -0.3450   -1.3554 S   0  0  0  0  0  0  0  0  0  0  0  0
    0.1070   -1.7625   -0.6030 C   0  0  0  0  0  0  0  0  0  0  0  0
   -0.9793   -1.3167    0.7813 S   0  0  0  0  0  0  0  0  0  0  0  0
   -2.4884   -0.3823   -0.3826 P   0  0  0  0  0  0  0  0  0  0  0  0
   -2.9161   -1.1721   -2.1135 S   0  0  0  0  0  0  0  0  0  0  0  0
   -2.0392    1.1346   -0.5408 O   0  0  0  0  0  0  0  0  0  0  0  0
   -1.7891    1.9696    0.6131 C   0  0  0  0  0  0  0  0  0  0  0  0
   -0.9660    3.1567    0.1605 C   0  0  0  0  0  0  0  0  0  0  0  0
   -3.6318   -0.4004    0.7306 O   0  0  0  0  0  0  0  0  0  0  0  0
   -5.0354   -0.4516    0.4014 C   0  0  0  0  0  0  0  0  0  0  0  0
   -5.5403    0.8858   -0.1041 C   0  0  0  0  0  0  0  0  0  0  0  0
    3.0658    2.9346    2.2409 H   0  0  0  0  0  0  0  0  0  0  0  0
    3.1938    2.1606    3.8316 H   0  0  0  0  0  0  0  0  0  0  0  0
    3.9341    1.4028    2.4116 H   0  0  0  0  0  0  0  0  0  0  0  0
    0.9285    1.7694    2.8735 H   0  0  0  0  0  0  0  0  0  0  0  0
    1.8355    0.2322    2.9863 H   0  0  0  0  0  0  0  0  0  0  0  0
    3.3593    0.7109   -2.5182 H   0  0  0  0  0  0  0  0  0  0  0  0
    4.7646    1.5625   -1.8147 H   0  0  0  0  0  0  0  0  0  0  0  0
    5.5796   -0.6296   -0.8900 H   0  0  0  0  0  0  0  0  0  0  0  0
    4.2066   -1.4474   -1.6421 H   0  0  0  0  0  0  0  0  0  0  0  0
    5.4342   -0.6743   -2.6550 H   0  0  0  0  0  0  0  0  0  0  0  0
    0.8514   -2.4498   -0.1990 H   0  0  0  0  0  0  0  0  0  0  0  0
   -0.4826   -2.2303   -1.3914 H   0  0  0  0  0  0  0  0  0  0  0  0
   -2.7538    2.2794    1.0212 H   0  0  0  0  0  0  0  0  0  0  0  0
   -1.2593    1.3758    1.3654 H   0  0  0  0  0  0  0  0  0  0  0  0
   -0.7949    3.8145    1.0067 H   0  0  0  0  0  0  0  0  0  0  0  0
   -0.0098    2.8196   -0.2317 H   0  0  0  0  0  0  0  0  0  0  0  0
   -1.4941    3.6983   -0.6188 H   0  0  0  0  0  0  0  0  0  0  0  0
   -5.1917   -1.2305   -0.3508 H   0  0  0  0  0  0  0  0  0  0  0  0
   -5.5160   -0.7379    1.3380 H   0  0  0  0  0  0  0  0  0  0  0  0
   -6.6051    0.8143   -0.3038 H   0  0  0  0  0  0  0  0  0  0  0  0
   -5.3690    1.6637    0.6357 H   0  0  0  0  0  0  0  0  0  0  0  0
   -5.0248    1.1511   -1.0270 H   0  0  0  0  0  0  0  0  0  0  0  0
  1  2  1  0  0  0  0
  2  3  1  0  0  0  0
  3  4  2  0  0  0  0
  4  5  2  0  0  0  0
  4  6  2  0  0  0  0
  6  7  1  0  0  0  0
  7  8  1  0  0  0  0
  4  9  1  0  0  0  0
  9 10  1  0  0  0  0
 10 11  1  0  0  0  0
 11 12  1  0  0  0  0
 12 13  2  0  0  0  0
 12 14  2  0  0  0  0
 14 15  1  0  0  0  0
 15 16  1  0  0  0  0
 12 17  1  0  0  0  0
 17 18  1  0  0  0  0
 18 19  1  0  0  0  0
  1 20  1  0  0  0  0
  1 21  1  0  0  0  0
  1 22  1  0  0  0  0
  2 23  1  0  0  0  0
  2 24  1  0  0  0  0
  7 25  1  0  0  0  0
  7 26  1  0  0  0  0
  8 27  1  0  0  0  0
  8 28  1  0  0  0  0
  8 29  1  0  0  0  0
 10 30  1  0  0  0  0
 10 31  1  0  0  0  0
 15 32  1  0  0  0  0
 15 33  1  0  0  0  0
 16 34  1  0  0  0  0
 16 35  1  0  0  0  0
 16 36  1  0  0  0  0
 18 37  1  0  0  0  0
 18 38  1  0  0  0  0
 19 39  1  0  0  0  0
 19 40  1  0  0  0  0
 19 41  1  0  0  0  0
M  END
