 xtb: 6.7.1 (edcfbbe)
          04092509473D

 38 37  0     0  0            999 V2000
    3.9578   -3.6053   -0.5250 C   0  0  0  0  0  0  0  0  0  0  0  0
    4.4219   -2.3243   -1.1997 C   0  0  0  0  0  0  0  0  0  0  0  0
    3.3357   -1.6743   -1.8902 O   0  0  0  0  0  0  0  0  0  0  0  0
    2.5332   -0.8838   -1.2099 C   0  0  0  0  0  0  0  0  0  0  0  0
    2.6352   -0.6433   -0.0252 O   0  0  0  0  0  0  0  0  0  0  0  0
    1.4708   -0.2728   -2.1011 C   0  0  0  0  0  0  0  0  0  0  0  0
    0.3602    0.3286   -1.2501 C   0  0  0  0  0  0  0  0  0  0  0  0
   -0.3424    0.8881   -1.8774 H   0  0  0  0  0  0  0  0  0  0  0  0
    0.9508    1.3119   -0.2508 C   0  0  0  0  0  0  0  0  0  0  0  0
    1.7844    2.1246   -0.5840 O   0  0  0  0  0  0  0  0  0  0  0  0
    0.3969    1.2351    0.9390 O   0  0  0  0  0  0  0  0  0  0  0  0
    0.8743    2.1079    1.9850 C   0  0  0  0  0  0  0  0  0  0  0  0
    1.6443    1.3077    3.0210 C   0  0  0  0  0  0  0  0  0  0  0  0
   -0.5788   -1.0200   -0.4401 S   0  0  0  0  0  0  0  0  0  0  0  0
   -2.1775    0.0897    0.3301 P   0  0  0  0  0  0  0  0  0  0  0  0
   -2.5451    1.8599   -0.4496 S   0  0  0  0  0  0  0  0  0  0  0  0
   -3.4277   -0.9096    0.2160 O   0  0  0  0  0  0  0  0  0  0  0  0
   -4.1488   -1.1047   -1.0062 C   0  0  0  0  0  0  0  0  0  0  0  0
   -1.9349    0.0245    1.8964 O   0  0  0  0  0  0  0  0  0  0  0  0
   -2.8426    0.6693    2.8049 C   0  0  0  0  0  0  0  0  0  0  0  0
    3.5206   -4.2784   -1.2570 H   0  0  0  0  0  0  0  0  0  0  0  0
    4.8080   -4.0893   -0.0555 H   0  0  0  0  0  0  0  0  0  0  0  0
    3.2145   -3.3792    0.2363 H   0  0  0  0  0  0  0  0  0  0  0  0
    5.1523   -2.5299   -1.9825 H   0  0  0  0  0  0  0  0  0  0  0  0
    4.8356   -1.6269   -0.4658 H   0  0  0  0  0  0  0  0  0  0  0  0
    1.0845   -1.0278   -2.7837 H   0  0  0  0  0  0  0  0  0  0  0  0
    1.9472    0.5220   -2.6800 H   0  0  0  0  0  0  0  0  0  0  0  0
    1.5036    2.8755    1.5255 H   0  0  0  0  0  0  0  0  0  0  0  0
   -0.0197    2.5650    2.4137 H   0  0  0  0  0  0  0  0  0  0  0  0
    2.5159    0.8469    2.5616 H   0  0  0  0  0  0  0  0  0  0  0  0
    1.9656    1.9720    3.8169 H   0  0  0  0  0  0  0  0  0  0  0  0
    1.0134    0.5251    3.4330 H   0  0  0  0  0  0  0  0  0  0  0  0
   -5.0343   -1.6747   -0.7351 H   0  0  0  0  0  0  0  0  0  0  0  0
   -3.5395   -1.6621   -1.7168 H   0  0  0  0  0  0  0  0  0  0  0  0
   -4.4310   -0.1405   -1.4324 H   0  0  0  0  0  0  0  0  0  0  0  0
   -3.0130    1.7028    2.4975 H   0  0  0  0  0  0  0  0  0  0  0  0
   -2.3557    0.6339    3.7762 H   0  0  0  0  0  0  0  0  0  0  0  0
   -3.7900    0.1321    2.8297 H   0  0  0  0  0  0  0  0  0  0  0  0
  1  2  1  0  0  0  0
  2  3  1  0  0  0  0
  3  4  1  0  0  0  0
  4  5  2  0  0  0  0
  4  6  1  0  0  0  0
  6  7  1  0  0  0  0
  7  8  1  0  0  0  0
  7  9  1  0  0  0  0
  9 10  2  0  0  0  0
  9 11  1  0  0  0  0
 11 12  1  0  0  0  0
 12 13  1  0  0  0  0
  7 14  1  0  0  0  0
 14 15  1  0  0  0  0
 15 16  2  0  0  0  0
 15 17  1  0  0  0  0
 17 18  1  0  0  0  0
 15 19  1  0  0  0  0
 19 20  1  0  0  0  0
  1 21  1  0  0  0  0
  1 22  1  0  0  0  0
  1 23  1  0  0  0  0
  2 24  1  0  0  0  0
  2 25  1  0  0  0  0
  6 26  1  0  0  0  0
  6 27  1  0  0  0  0
 12 28  1  0  0  0  0
 12 29  1  0  0  0  0
 13 30  1  0  0  0  0
 13 31  1  0  0  0  0
 13 32  1  0  0  0  0
 18 33  1  0  0  0  0
 18 34  1  0  0  0  0
 18 35  1  0  0  0  0
 20 36  1  0  0  0  0
 20 37  1  0  0  0  0
 20 38  1  0  0  0  0
M  END
