 xtb: 6.7.1 (edcfbbe)
          04032520173D

  9  8  0     0  0            999 V2000
    0.9812    0.8043    0.0894 C   0  0  0  0  0  0  0  0  0  0  0  0
   -0.3439    0.0447    0.0011 C   0  0  0  0  0  0  0  0  0  0  0  0
   -1.4001    0.8658    0.1435 F   0  0  0  0  0  0  0  0  0  0  0  0
   -0.4623   -0.8910    0.9629 F   0  0  0  0  0  0  0  0  0  0  0  0
   -0.5126   -0.5956   -1.1652 F   0  0  0  0  0  0  0  0  0  0  0  0
    2.0769   -0.0407   -0.0654 O   0  0  0  0  0  0  0  0  0  0  0  0
    1.0043    1.5189   -0.7372 H   0  0  0  0  0  0  0  0  0  0  0  0
    0.9834    1.3430    1.0441 H   0  0  0  0  0  0  0  0  0  0  0  0
    2.1973   -0.6057    0.7134 H   0  0  0  0  0  0  0  0  0  0  0  0
  1  2  1  0  0  0  0
  2  3  1  0  0  0  0
  2  4  1  0  0  0  0
  2  5  1  0  0  0  0
  1  6  1  0  0  0  0
  1  7  1  0  0  0  0
  1  8  1  0  0  0  0
  6  9  1  0  0  0  0
M  END
