41
 xtb: 6.7.1 (edcfbbe)
C            4.69573840223465       -2.87147102240424       -1.65965519379895
C            4.17107027254571       -1.46748677622673       -1.50962446763459
O            3.09958020031025       -1.51146541813067       -0.50433978479391
P            2.28285997228624       -0.17540123217268       -0.11876588418820
S            3.32175914066500        1.44343457327364        0.18428119671218
O            1.39163558803547       -0.71500468507818        1.10106940956423
C            1.81635475949074       -0.57149542620062        2.50274954745413
C            2.92409181773047       -1.53344317606978        2.85354782375288
S            0.87370118459749       -0.10810920228520       -1.69890498849674
C            0.30144437661197        1.63416739695286       -1.58279062765629
S           -0.59479524325360        2.11723844880233       -0.05975814150373
P           -2.32707086317296        0.91111998979062       -0.24998296820576
S           -3.05284050476015        0.73208703907421       -2.04985353770605
O           -3.19024779158906        1.71452963366659        0.84683483167238
C           -4.18241944690826        1.04264036527966        1.70478411195353
C           -5.43472046723913        0.67314556659560        0.94908183799662
O           -1.94689224219428       -0.46612120450556        0.49093423418241
C           -2.31466615507279       -1.78900732202699       -0.03126538018104
C           -1.61147247681356       -2.81233058471952        0.82212013961872
H            5.09484219012434       -3.24151314208524       -0.71120087848554
H            3.91100061231979       -3.54892665223849       -2.00702241185824
H            5.50347368304489       -2.86998307411952       -2.39765161636100
H            3.75300655448470       -1.08822085626062       -2.44803176470753
H            4.94275963402478       -0.77886557089920       -1.15378088671806
H            2.10572787780835        0.47074822196886        2.66856930023864
H            0.90440077986100       -0.78206096324950        3.06497757958960
H            3.12575974047261       -1.45714655500967        3.92708279689613
H            2.63287637276062       -2.56363823949732        2.62937580744173
H            3.84810674037691       -1.29829574172006        2.31707043864786
H           -0.34263850034914        1.78599224877484       -2.45428155494468
H            1.16320746688981        2.30503083335163       -1.64227061971354
H           -3.70751926608321        0.17121276974098        2.16434601503800
H           -4.38606351093129        1.78448055930676        2.47919208962336
H           -6.16950648565763        0.28986703610476        1.66469455851613
H           -5.86280315016590        1.54610152478938        0.44835504883987
H           -5.24361120357640       -0.10613964154390        0.20624231196594
H           -3.40287405145210       -1.88780677327067        0.02621076964172
H           -2.00253782900804       -1.84938324153106       -1.07725369591049
H           -0.52572812364363       -2.70492279223425        0.74729435708653
H           -1.90947804351674       -2.72349066576091        1.87073699491664
H           -1.88601302394836       -3.81117104410674        0.46895587533593
