 xtb: 6.7.1 (edcfbbe)
          04092505203D

 41 40  0     0  0            999 V2000
    4.4965    0.8234   -2.0908 C   0  0  0  0  0  0  0  0  0  0  0  0
    3.1636    0.1037   -2.0995 C   0  0  0  0  0  0  0  0  0  0  0  0
    2.2655    0.6634   -1.1110 O   0  0  0  0  0  0  0  0  0  0  0  0
    2.1086    0.1351    0.3646 P   0  0  0  0  0  0  0  0  0  0  0  0
    0.8792    1.2472    1.3962 S   0  0  0  0  0  0  0  0  0  0  0  0
    3.5990    0.1142    0.9178 O   0  0  0  0  0  0  0  0  0  0  0  0
    3.8942    0.0640    2.3259 C   0  0  0  0  0  0  0  0  0  0  0  0
    3.4271   -1.2272    2.9651 C   0  0  0  0  0  0  0  0  0  0  0  0
    1.6880   -1.9460    0.1528 S   0  0  0  0  0  0  0  0  0  0  0  0
    0.0621   -1.8457   -0.6294 C   0  0  0  0  0  0  0  0  0  0  0  0
   -1.2671   -1.4140    0.5405 S   0  0  0  0  0  0  0  0  0  0  0  0
   -2.2005    0.1065   -0.6277 P   0  0  0  0  0  0  0  0  0  0  0  0
   -1.0410    1.0917   -1.8599 S   0  0  0  0  0  0  0  0  0  0  0  0
   -3.0910    0.8861    0.4264 O   0  0  0  0  0  0  0  0  0  0  0  0
   -2.6271    1.7145    1.5074 C   0  0  0  0  0  0  0  0  0  0  0  0
   -2.2769    3.1072    1.0251 C   0  0  0  0  0  0  0  0  0  0  0  0
   -3.2954   -0.6486   -1.4752 O   0  0  0  0  0  0  0  0  0  0  0  0
   -4.3297   -1.4822   -0.8960 C   0  0  0  0  0  0  0  0  0  0  0  0
   -5.6225   -0.7085   -0.7370 C   0  0  0  0  0  0  0  0  0  0  0  0
    4.3435    1.8898   -2.2332 H   0  0  0  0  0  0  0  0  0  0  0  0
    5.0055    0.6642   -1.1440 H   0  0  0  0  0  0  0  0  0  0  0  0
    5.1110    0.4381   -2.8986 H   0  0  0  0  0  0  0  0  0  0  0  0
    3.2908   -0.9643   -1.9003 H   0  0  0  0  0  0  0  0  0  0  0  0
    2.6382    0.2475   -3.0461 H   0  0  0  0  0  0  0  0  0  0  0  0
    4.9794    0.1661    2.3674 H   0  0  0  0  0  0  0  0  0  0  0  0
    3.4197    0.9247    2.8070 H   0  0  0  0  0  0  0  0  0  0  0  0
    3.7810   -1.2679    3.9902 H   0  0  0  0  0  0  0  0  0  0  0  0
    2.3385   -1.2682    2.9674 H   0  0  0  0  0  0  0  0  0  0  0  0
    3.8092   -2.0836    2.4149 H   0  0  0  0  0  0  0  0  0  0  0  0
   -0.1367   -2.8363   -1.0295 H   0  0  0  0  0  0  0  0  0  0  0  0
    0.0764   -1.0874   -1.4182 H   0  0  0  0  0  0  0  0  0  0  0  0
   -3.4689    1.7343    2.2021 H   0  0  0  0  0  0  0  0  0  0  0  0
   -1.7645    1.2449    1.9865 H   0  0  0  0  0  0  0  0  0  0  0  0
   -1.4202    3.0669    0.3547 H   0  0  0  0  0  0  0  0  0  0  0  0
   -3.1176    3.5478    0.4959 H   0  0  0  0  0  0  0  0  0  0  0  0
   -2.0173    3.7247    1.8787 H   0  0  0  0  0  0  0  0  0  0  0  0
   -4.4444   -2.3031   -1.6061 H   0  0  0  0  0  0  0  0  0  0  0  0
   -3.9765   -1.8689    0.0643 H   0  0  0  0  0  0  0  0  0  0  0  0
   -5.9310   -0.2998   -1.6953 H   0  0  0  0  0  0  0  0  0  0  0  0
   -6.3927   -1.3780   -0.3669 H   0  0  0  0  0  0  0  0  0  0  0  0
   -5.4899    0.1098   -0.0347 H   0  0  0  0  0  0  0  0  0  0  0  0
  1  2  1  0  0  0  0
  2  3  1  0  0  0  0
  3  4  2  0  0  0  0
  4  5  2  0  0  0  0
  4  6  2  0  0  0  0
  6  7  1  0  0  0  0
  7  8  1  0  0  0  0
  4  9  1  0  0  0  0
  9 10  1  0  0  0  0
 10 11  1  0  0  0  0
 11 12  1  0  0  0  0
 12 13  2  0  0  0  0
 12 14  2  0  0  0  0
 14 15  1  0  0  0  0
 15 16  1  0  0  0  0
 12 17  2  0  0  0  0
 17 18  1  0  0  0  0
 18 19  1  0  0  0  0
  1 20  1  0  0  0  0
  1 21  1  0  0  0  0
  1 22  1  0  0  0  0
  2 23  1  0  0  0  0
  2 24  1  0  0  0  0
  7 25  1  0  0  0  0
  7 26  1  0  0  0  0
  8 27  1  0  0  0  0
  8 28  1  0  0  0  0
  8 29  1  0  0  0  0
 10 30  1  0  0  0  0
 10 31  1  0  0  0  0
 15 32  1  0  0  0  0
 15 33  1  0  0  0  0
 16 34  1  0  0  0  0
 16 35  1  0  0  0  0
 16 36  1  0  0  0  0
 18 37  1  0  0  0  0
 18 38  1  0  0  0  0
 19 39  1  0  0  0  0
 19 40  1  0  0  0  0
 19 41  1  0  0  0  0
M  END
