41
 xtb: 6.7.1 (edcfbbe)
C            2.32994213499272       -0.40247812639508       -2.96470101633373
C            2.70055095170623       -1.39055560723836       -1.88940938005871
O            1.71454889434540       -1.29874338358293       -0.79441863614434
P            2.13619529270993       -0.76165162525124        0.65542935781064
S            3.26824638447718        0.82355725041629        0.72500055878502
O            2.72249977415314       -2.11177845021672        1.30727000520486
C            3.40326384778299       -2.09777740029436        2.61322361441463
C            4.84672569877795       -2.48389036784193        2.41709261537650
S            0.25443988989848       -0.60873599349886        1.60933357724805
C           -0.12295287037712        1.16984396257556        1.34947054660411
S           -0.33949496662012        1.72985557218009       -0.39436592436472
P           -2.35996885904638        1.28021335253803       -0.77437590214416
S           -2.79793146768813        1.75272292281163       -2.61155995356065
O           -3.13431640805175        2.03520783175780        0.41005156037855
C           -4.56700779023108        2.37150081381132        0.30762154029193
C           -5.44944000932458        1.15451701329201        0.42957629898577
O           -2.59992140139674       -0.25327724889873       -0.33742884821795
C           -2.07860908526444       -1.34302721360431       -1.17256610769573
C           -2.43581581343219       -2.63805075417488       -0.49098427229475
H            1.30744175099272       -0.57592346543027       -3.31354165286618
H            2.41265868807531        0.62474113369332       -2.59877762706880
H            3.01005705648064       -0.52545681750869       -3.81385940955755
H            3.70529540865846       -1.21013942490496       -1.49547065708782
H            2.63820419452053       -2.42340832608095       -2.24029317755875
H            3.30743754133793       -1.10619066419827        3.06601242613495
H            2.86379044658346       -2.82192187484695        3.22851325094739
H            5.36840832581445       -1.74570906172338        1.80113137404736
H            5.33928128581128       -2.53210269657482        3.39359259673156
H            4.92626981647643       -3.46586379288528        1.94201798861826
H            0.69797251037597        1.77098356197393        1.74953890397170
H           -1.02852843409894        1.37242126859678        1.92773512407403
H           -4.72036700952330        3.06553106445191        1.13594795742685
H           -4.72438355117166        2.90176179760629       -0.63670153979429
H           -5.23465854552172        0.60309978340058        1.34944088079646
H           -6.49216384146467        1.48781974500019        0.46309140807544
H           -5.33645847186766        0.48224242336349       -0.42578665011720
H           -2.53970280170236       -1.26398599859451       -2.16197470933828
H           -0.99405638837823       -1.21914192756120       -1.26692824593806
H           -3.52041400311280       -2.74098903067188       -0.39289447681382
H           -2.06274896788202       -3.47039960669943       -1.09565246174580
H           -1.97917651827726       -2.69917499591999        0.50069315228803
