 xtb: 6.7.1 (edcfbbe)
          04092507313D

 38 37  0     0  0            999 V2000
    2.7954   -3.9682    0.0047 C   0  0  0  0  0  0  0  0  0  0  0  0
    2.7445   -2.5059    0.3982 C   0  0  0  0  0  0  0  0  0  0  0  0
    2.3034   -1.7545   -0.7498 O   0  0  0  0  0  0  0  0  0  0  0  0
    2.0867   -0.4697   -0.6104 C   0  0  0  0  0  0  0  0  0  0  0  0
    2.2273    0.1506    0.4265 O   0  0  0  0  0  0  0  0  0  0  0  0
    1.6496    0.1898   -1.9045 C   0  0  0  0  0  0  0  0  0  0  0  0
    0.3753    1.0079   -1.6745 C   0  0  0  0  0  0  0  0  0  0  0  0
    0.2357    1.7183   -2.4922 H   0  0  0  0  0  0  0  0  0  0  0  0
    0.4387    1.7588   -0.3593 C   0  0  0  0  0  0  0  0  0  0  0  0
   -0.3338    1.5183    0.5568 O   0  0  0  0  0  0  0  0  0  0  0  0
    1.3307    2.6980   -0.3557 O   0  0  0  0  0  0  0  0  0  0  0  0
    1.5485    3.4266    0.8733 C   0  0  0  0  0  0  0  0  0  0  0  0
    2.4828    4.5795    0.5685 C   0  0  0  0  0  0  0  0  0  0  0  0
   -1.1229   -0.0344   -1.6726 S   0  0  0  0  0  0  0  0  0  0  0  0
   -1.5821   -0.4763    0.3484 P   0  0  0  0  0  0  0  0  0  0  0  0
   -0.4390   -1.1816    1.7737 S   0  0  0  0  0  0  0  0  0  0  0  0
   -2.6951    0.5172    0.9329 O   0  0  0  0  0  0  0  0  0  0  0  0
   -3.7278    1.0702    0.1014 C   0  0  0  0  0  0  0  0  0  0  0  0
   -2.4962   -1.6945   -0.2481 O   0  0  0  0  0  0  0  0  0  0  0  0
   -3.1830   -2.5956    0.6166 C   0  0  0  0  0  0  0  0  0  0  0  0
    1.8047   -4.3069   -0.2838 H   0  0  0  0  0  0  0  0  0  0  0  0
    3.4749   -4.1058   -0.8311 H   0  0  0  0  0  0  0  0  0  0  0  0
    3.1390   -4.5528    0.8512 H   0  0  0  0  0  0  0  0  0  0  0  0
    3.7270   -2.1265    0.6952 H   0  0  0  0  0  0  0  0  0  0  0  0
    2.0414   -2.3255    1.2187 H   0  0  0  0  0  0  0  0  0  0  0  0
    1.4814   -0.5665   -2.6693 H   0  0  0  0  0  0  0  0  0  0  0  0
    2.4497    0.8649   -2.2153 H   0  0  0  0  0  0  0  0  0  0  0  0
    0.5794    3.7655    1.2516 H   0  0  0  0  0  0  0  0  0  0  0  0
    1.9777    2.7239    1.5944 H   0  0  0  0  0  0  0  0  0  0  0  0
    3.4235    4.2013    0.1811 H   0  0  0  0  0  0  0  0  0  0  0  0
    2.0355    5.2399   -0.1680 H   0  0  0  0  0  0  0  0  0  0  0  0
    2.6701    5.1347    1.4813 H   0  0  0  0  0  0  0  0  0  0  0  0
   -3.3656    1.9885   -0.3599 H   0  0  0  0  0  0  0  0  0  0  0  0
   -4.5591    1.2828    0.7698 H   0  0  0  0  0  0  0  0  0  0  0  0
   -4.0236    0.3579   -0.6705 H   0  0  0  0  0  0  0  0  0  0  0  0
   -3.9930   -2.0841    1.1389 H   0  0  0  0  0  0  0  0  0  0  0  0
   -2.4884   -3.0128    1.3487 H   0  0  0  0  0  0  0  0  0  0  0  0
   -3.5751   -3.3787   -0.0276 H   0  0  0  0  0  0  0  0  0  0  0  0
  1  2  1  0  0  0  0
  2  3  1  0  0  0  0
  3  4  4  0  0  0  0
  4  5  2  0  0  0  0
  4  6  1  0  0  0  0
  6  7  1  0  0  0  0
  7  8  1  0  0  0  0
  7  9  1  0  0  0  0
  9 10  2  0  0  0  0
  9 11  4  0  0  0  0
 11 12  1  0  0  0  0
 12 13  1  0  0  0  0
  7 14  1  0  0  0  0
 14 15  1  0  0  0  0
 15 16  2  0  0  0  0
 15 17  1  0  0  0  0
 17 18  1  0  0  0  0
 15 19  1  0  0  0  0
 19 20  1  0  0  0  0
  1 21  1  0  0  0  0
  1 22  1  0  0  0  0
  1 23  1  0  0  0  0
  2 24  1  0  0  0  0
  2 25  1  0  0  0  0
  6 26  1  0  0  0  0
  6 27  1  0  0  0  0
 12 28  1  0  0  0  0
 12 29  1  0  0  0  0
 13 30  1  0  0  0  0
 13 31  1  0  0  0  0
 13 32  1  0  0  0  0
 18 33  1  0  0  0  0
 18 34  1  0  0  0  0
 18 35  1  0  0  0  0
 20 36  1  0  0  0  0
 20 37  1  0  0  0  0
 20 38  1  0  0  0  0
M  END
