 xtb: 6.7.1 (edcfbbe)
          04092507313D

 38 37  0     0  0            999 V2000
    3.4332   -3.0890    0.2356 C   0  0  0  0  0  0  0  0  0  0  0  0
    3.0283   -1.7105    0.7316 C   0  0  0  0  0  0  0  0  0  0  0  0
    2.7453   -0.8256   -0.3706 O   0  0  0  0  0  0  0  0  0  0  0  0
    1.5671   -0.8892   -0.9503 C   0  0  0  0  0  0  0  0  0  0  0  0
    0.6663   -1.6325   -0.6099 O   0  0  0  0  0  0  0  0  0  0  0  0
    1.4415    0.1017   -2.0883 C   0  0  0  0  0  0  0  0  0  0  0  0
    0.2513    1.0343   -1.8471 C   0  0  0  0  0  0  0  0  0  0  0  0
    0.1395    1.7117   -2.6981 H   0  0  0  0  0  0  0  0  0  0  0  0
    0.4117    1.8539   -0.5799 C   0  0  0  0  0  0  0  0  0  0  0  0
   -0.4789    1.9399    0.2462 O   0  0  0  0  0  0  0  0  0  0  0  0
    1.5771    2.4275   -0.5017 O   0  0  0  0  0  0  0  0  0  0  0  0
    1.9155    3.1654    0.6946 C   0  0  0  0  0  0  0  0  0  0  0  0
    2.5725    2.2438    1.7083 C   0  0  0  0  0  0  0  0  0  0  0  0
   -1.3424    0.1549   -1.7345 S   0  0  0  0  0  0  0  0  0  0  0  0
   -1.5384   -0.3074    0.3294 P   0  0  0  0  0  0  0  0  0  0  0  0
   -0.3422   -0.4334    1.8806 S   0  0  0  0  0  0  0  0  0  0  0  0
   -2.7979    0.5488    0.8396 O   0  0  0  0  0  0  0  0  0  0  0  0
   -3.9217    0.8433   -0.0004 C   0  0  0  0  0  0  0  0  0  0  0  0
   -2.2016   -1.7379   -0.0428 O   0  0  0  0  0  0  0  0  0  0  0  0
   -2.5572   -2.6688    0.9772 C   0  0  0  0  0  0  0  0  0  0  0  0
    3.7086   -3.7052    1.0849 H   0  0  0  0  0  0  0  0  0  0  0  0
    2.6012   -3.5590   -0.2842 H   0  0  0  0  0  0  0  0  0  0  0  0
    4.2788   -3.0099   -0.4421 H   0  0  0  0  0  0  0  0  0  0  0  0
    3.8444   -1.2228    1.2640 H   0  0  0  0  0  0  0  0  0  0  0  0
    2.1433   -1.7648    1.3728 H   0  0  0  0  0  0  0  0  0  0  0  0
    1.2641   -0.4539   -3.0100 H   0  0  0  0  0  0  0  0  0  0  0  0
    2.3600    0.6828   -2.1627 H   0  0  0  0  0  0  0  0  0  0  0  0
    2.6036    3.9363    0.3480 H   0  0  0  0  0  0  0  0  0  0  0  0
    1.0057    3.6116    1.1034 H   0  0  0  0  0  0  0  0  0  0  0  0
    1.8721    1.4734    2.0296 H   0  0  0  0  0  0  0  0  0  0  0  0
    3.4434    1.7655    1.2690 H   0  0  0  0  0  0  0  0  0  0  0  0
    2.8762    2.8210    2.5749 H   0  0  0  0  0  0  0  0  0  0  0  0
   -4.1351    0.0057   -0.6667 H   0  0  0  0  0  0  0  0  0  0  0  0
   -3.7102    1.7378   -0.5852 H   0  0  0  0  0  0  0  0  0  0  0  0
   -4.7547    1.0179    0.6767 H   0  0  0  0  0  0  0  0  0  0  0  0
   -3.0046   -3.5127    0.4583 H   0  0  0  0  0  0  0  0  0  0  0  0
   -3.2673   -2.2220    1.6761 H   0  0  0  0  0  0  0  0  0  0  0  0
   -1.6648   -2.9825    1.5211 H   0  0  0  0  0  0  0  0  0  0  0  0
  1  2  1  0  0  0  0
  2  3  1  0  0  0  0
  3  4  4  0  0  0  0
  4  5  2  0  0  0  0
  4  6  1  0  0  0  0
  6  7  1  0  0  0  0
  7  8  1  0  0  0  0
  7  9  1  0  0  0  0
  9 10  2  0  0  0  0
  9 11  4  0  0  0  0
 11 12  1  0  0  0  0
 12 13  1  0  0  0  0
  7 14  1  0  0  0  0
 14 15  1  0  0  0  0
 15 16  2  0  0  0  0
 15 17  1  0  0  0  0
 17 18  1  0  0  0  0
 15 19  1  0  0  0  0
 19 20  1  0  0  0  0
  1 21  1  0  0  0  0
  1 22  1  0  0  0  0
  1 23  1  0  0  0  0
  2 24  1  0  0  0  0
  2 25  1  0  0  0  0
  6 26  1  0  0  0  0
  6 27  1  0  0  0  0
 12 28  1  0  0  0  0
 12 29  1  0  0  0  0
 13 30  1  0  0  0  0
 13 31  1  0  0  0  0
 13 32  1  0  0  0  0
 18 33  1  0  0  0  0
 18 34  1  0  0  0  0
 18 35  1  0  0  0  0
 20 36  1  0  0  0  0
 20 37  1  0  0  0  0
 20 38  1  0  0  0  0
M  END
