 xtb: 6.7.1 (edcfbbe)
          04092507313D

 38 37  0     0  0            999 V2000
    5.3183   -2.1397   -1.0868 C   0  0  0  0  0  0  0  0  0  0  0  0
    4.0166   -2.9250   -1.0921 C   0  0  0  0  0  0  0  0  0  0  0  0
    2.9930   -2.2147   -1.8178 O   0  0  0  0  0  0  0  0  0  0  0  0
    2.2639   -1.3310   -1.1735 C   0  0  0  0  0  0  0  0  0  0  0  0
    2.3556   -1.0888    0.0127 O   0  0  0  0  0  0  0  0  0  0  0  0
    1.2834   -0.6323   -2.0916 C   0  0  0  0  0  0  0  0  0  0  0  0
    0.2884    0.1679   -1.2611 C   0  0  0  0  0  0  0  0  0  0  0  0
   -0.2952    0.8389   -1.9001 H   0  0  0  0  0  0  0  0  0  0  0  0
    1.0384    1.0331   -0.2623 C   0  0  0  0  0  0  0  0  0  0  0  0
    1.9757    1.7224   -0.6007 O   0  0  0  0  0  0  0  0  0  0  0  0
    0.5313    1.0078    0.9521 O   0  0  0  0  0  0  0  0  0  0  0  0
    1.1977    1.8144    1.9459 C   0  0  0  0  0  0  0  0  0  0  0  0
    0.7481    1.3777    3.3245 C   0  0  0  0  0  0  0  0  0  0  0  0
   -0.8832   -0.9560   -0.4357 S   0  0  0  0  0  0  0  0  0  0  0  0
   -2.2000    0.5086    0.3642 P   0  0  0  0  0  0  0  0  0  0  0  0
   -2.1067    2.3065   -0.4068 S   0  0  0  0  0  0  0  0  0  0  0  0
   -3.6268   -0.1995    0.1810 O   0  0  0  0  0  0  0  0  0  0  0  0
   -4.2024   -0.3804   -1.1173 C   0  0  0  0  0  0  0  0  0  0  0  0
   -2.0903    0.4873    1.9381 O   0  0  0  0  0  0  0  0  0  0  0  0
   -2.1935   -0.7418    2.6854 C   0  0  0  0  0  0  0  0  0  0  0  0
    5.6380   -1.9370   -2.1052 H   0  0  0  0  0  0  0  0  0  0  0  0
    5.1826   -1.1943   -0.5655 H   0  0  0  0  0  0  0  0  0  0  0  0
    6.0842   -2.7158   -0.5782 H   0  0  0  0  0  0  0  0  0  0  0  0
    3.6635   -3.0991   -0.0720 H   0  0  0  0  0  0  0  0  0  0  0  0
    4.1227   -3.8690   -1.6265 H   0  0  0  0  0  0  0  0  0  0  0  0
    0.7804   -1.3639   -2.7227 H   0  0  0  0  0  0  0  0  0  0  0  0
    1.8539    0.0502   -2.7257 H   0  0  0  0  0  0  0  0  0  0  0  0
    2.2748    1.6810    1.8045 H   0  0  0  0  0  0  0  0  0  0  0  0
    0.9435    2.8605    1.7466 H   0  0  0  0  0  0  0  0  0  0  0  0
    0.9650    0.3231    3.4680 H   0  0  0  0  0  0  0  0  0  0  0  0
    1.2827    1.9594    4.0681 H   0  0  0  0  0  0  0  0  0  0  0  0
   -0.3188    1.5451    3.4361 H   0  0  0  0  0  0  0  0  0  0  0  0
   -5.2274   -0.6962   -0.9413 H   0  0  0  0  0  0  0  0  0  0  0  0
   -3.6510   -1.1462   -1.6626 H   0  0  0  0  0  0  0  0  0  0  0  0
   -4.1833    0.5602   -1.6700 H   0  0  0  0  0  0  0  0  0  0  0  0
   -3.1630   -1.2034    2.5101 H   0  0  0  0  0  0  0  0  0  0  0  0
   -2.0855   -0.4539    3.7278 H   0  0  0  0  0  0  0  0  0  0  0  0
   -1.3949   -1.4216    2.3888 H   0  0  0  0  0  0  0  0  0  0  0  0
  1  2  1  0  0  0  0
  2  3  1  0  0  0  0
  3  4  4  0  0  0  0
  4  5  2  0  0  0  0
  4  6  1  0  0  0  0
  6  7  1  0  0  0  0
  7  8  1  0  0  0  0
  7  9  1  0  0  0  0
  9 10  2  0  0  0  0
  9 11  1  0  0  0  0
 11 12  1  0  0  0  0
 12 13  1  0  0  0  0
  7 14  1  0  0  0  0
 14 15  1  0  0  0  0
 15 16  2  0  0  0  0
 15 17  1  0  0  0  0
 17 18  1  0  0  0  0
 15 19  2  0  0  0  0
 19 20  1  0  0  0  0
  1 21  1  0  0  0  0
  1 22  1  0  0  0  0
  1 23  1  0  0  0  0
  2 24  1  0  0  0  0
  2 25  1  0  0  0  0
  6 26  1  0  0  0  0
  6 27  1  0  0  0  0
 12 28  1  0  0  0  0
 12 29  1  0  0  0  0
 13 30  1  0  0  0  0
 13 31  1  0  0  0  0
 13 32  1  0  0  0  0
 18 33  1  0  0  0  0
 18 34  1  0  0  0  0
 18 35  1  0  0  0  0
 20 36  1  0  0  0  0
 20 37  1  0  0  0  0
 20 38  1  0  0  0  0
M  END
