 xtb: 6.7.1 (edcfbbe)
          04092505213D

 41 40  0     0  0            999 V2000
    1.7045   -0.9746   -2.9721 C   0  0  0  0  0  0  0  0  0  0  0  0
    2.6146   -0.3929   -1.9105 C   0  0  0  0  0  0  0  0  0  0  0  0
    1.8025    0.3130   -0.9313 O   0  0  0  0  0  0  0  0  0  0  0  0
    1.9677    0.1125    0.6170 P   0  0  0  0  0  0  0  0  0  0  0  0
    0.8223    1.2756    1.6940 S   0  0  0  0  0  0  0  0  0  0  0  0
    3.5271    0.3278    0.8153 O   0  0  0  0  0  0  0  0  0  0  0  0
    4.1343    0.2787    2.1245 C   0  0  0  0  0  0  0  0  0  0  0  0
    5.5333    0.8474    2.0060 C   0  0  0  0  0  0  0  0  0  0  0  0
    1.7263   -1.9597    1.0154 S   0  0  0  0  0  0  0  0  0  0  0  0
   -0.0742   -1.9433    1.1764 C   0  0  0  0  0  0  0  0  0  0  0  0
   -0.9431   -1.8352   -0.4235 S   0  0  0  0  0  0  0  0  0  0  0  0
   -1.8717    0.0725   -0.4508 P   0  0  0  0  0  0  0  0  0  0  0  0
   -1.0341    1.6109   -1.3424 S   0  0  0  0  0  0  0  0  0  0  0  0
   -2.2720    0.1999    1.0720 O   0  0  0  0  0  0  0  0  0  0  0  0
   -2.6731    1.4564    1.6561 C   0  0  0  0  0  0  0  0  0  0  0  0
   -3.9676    1.9656    1.0617 C   0  0  0  0  0  0  0  0  0  0  0  0
   -3.2592   -0.3177   -1.1266 O   0  0  0  0  0  0  0  0  0  0  0  0
   -3.4864   -0.2978   -2.5467 C   0  0  0  0  0  0  0  0  0  0  0  0
   -4.9570   -0.0181   -2.7869 C   0  0  0  0  0  0  0  0  0  0  0  0
    2.3105   -1.3979   -3.7664 H   0  0  0  0  0  0  0  0  0  0  0  0
    1.0708   -1.7516   -2.5502 H   0  0  0  0  0  0  0  0  0  0  0  0
    1.0700   -0.1912   -3.3797 H   0  0  0  0  0  0  0  0  0  0  0  0
    3.2941    0.3516   -2.3275 H   0  0  0  0  0  0  0  0  0  0  0  0
    3.1883   -1.1722   -1.4017 H   0  0  0  0  0  0  0  0  0  0  0  0
    3.5176    0.8626    2.8153 H   0  0  0  0  0  0  0  0  0  0  0  0
    4.1507   -0.7641    2.4518 H   0  0  0  0  0  0  0  0  0  0  0  0
    6.0145    0.8118    2.9777 H   0  0  0  0  0  0  0  0  0  0  0  0
    6.1117    0.2650    1.2950 H   0  0  0  0  0  0  0  0  0  0  0  0
    5.4895    1.8779    1.6645 H   0  0  0  0  0  0  0  0  0  0  0  0
   -0.3730   -1.1039    1.8046 H   0  0  0  0  0  0  0  0  0  0  0  0
   -0.3525   -2.8954    1.6196 H   0  0  0  0  0  0  0  0  0  0  0  0
   -2.7705    1.2264    2.7180 H   0  0  0  0  0  0  0  0  0  0  0  0
   -1.8618    2.1782    1.5150 H   0  0  0  0  0  0  0  0  0  0  0  0
   -4.7377    1.2019    1.1318 H   0  0  0  0  0  0  0  0  0  0  0  0
   -4.2832    2.8539    1.5998 H   0  0  0  0  0  0  0  0  0  0  0  0
   -3.8148    2.2216    0.0138 H   0  0  0  0  0  0  0  0  0  0  0  0
   -2.8528    0.4779   -2.9911 H   0  0  0  0  0  0  0  0  0  0  0  0
   -3.1967   -1.2732   -2.9461 H   0  0  0  0  0  0  0  0  0  0  0  0
   -5.5620   -0.7697   -2.2884 H   0  0  0  0  0  0  0  0  0  0  0  0
   -5.2218    0.9618   -2.3996 H   0  0  0  0  0  0  0  0  0  0  0  0
   -5.1536   -0.0459   -3.8536 H   0  0  0  0  0  0  0  0  0  0  0  0
  1  2  1  0  0  0  0
  2  3  1  0  0  0  0
  3  4  2  0  0  0  0
  4  5  2  0  0  0  0
  4  6  2  0  0  0  0
  6  7  1  0  0  0  0
  7  8  1  0  0  0  0
  4  9  1  0  0  0  0
  9 10  1  0  0  0  0
 10 11  1  0  0  0  0
 11 12  1  0  0  0  0
 12 13  2  0  0  0  0
 12 14  2  0  0  0  0
 14 15  1  0  0  0  0
 15 16  1  0  0  0  0
 12 17  2  0  0  0  0
 17 18  1  0  0  0  0
 18 19  1  0  0  0  0
  1 20  1  0  0  0  0
  1 21  1  0  0  0  0
  1 22  1  0  0  0  0
  2 23  1  0  0  0  0
  2 24  1  0  0  0  0
  7 25  1  0  0  0  0
  7 26  1  0  0  0  0
  8 27  1  0  0  0  0
  8 28  1  0  0  0  0
  8 29  1  0  0  0  0
 10 30  1  0  0  0  0
 10 31  1  0  0  0  0
 15 32  1  0  0  0  0
 15 33  1  0  0  0  0
 16 34  1  0  0  0  0
 16 35  1  0  0  0  0
 16 36  1  0  0  0  0
 18 37  1  0  0  0  0
 18 38  1  0  0  0  0
 19 39  1  0  0  0  0
 19 40  1  0  0  0  0
 19 41  1  0  0  0  0
M  END
