  17
 
 C          4.0618089398       -0.2785035681       -0.0022320321
 C          2.7605128508        0.5148175170        0.0003256485
 C          1.5454378021       -0.4112292195       -0.0003048395
 C          0.2510482991        0.3883188964        0.0005101392
 O         -0.8316618500       -0.5504315736        0.0002766251
 N         -2.0805912058       -0.0425452526        0.0001149604
 O         -2.1988013905        1.1457670413        0.0001049209
 O         -2.9452605764       -0.8643361259       -0.0003408508
 H          4.9150528416        0.3944163127       -0.0007216629
 H          4.1237508403       -0.9140547453        0.8775330874
 H          4.1231200087       -0.9092153529       -0.8855238267
 H          2.7274239091        1.1553427752        0.8831578208
 H          2.7259653610        1.1585031014       -0.8801541980
 H          1.5645147455       -1.0514402993       -0.8824948066
 H          1.5647189407       -1.0529161243        0.8808104939
 H          0.1727644626        1.0216498566        0.8895084845
 H          0.1722830673        1.0226703976       -0.8877153237
          17
        -28.17226136
 C          3.2964549753        0.8305622551        0.3949562133
 C          2.1420294013        0.2921233062       -0.4411811204
 C          1.3125201321       -0.7240402841        0.3425553547
 C          0.1315292829       -1.2475084118       -0.4691694483
 O         -0.7743707126       -0.2001166529       -0.8375315280
 N         -1.6679110188        0.2090228239        0.0902849193
 O         -1.6744401339       -0.3377940717        1.1503857148
 O         -2.3739425863        1.0974707895       -0.2783449140
 H          3.9524945168        0.0206592514        0.7047259374
 H          3.8794426803        1.5461796858       -0.1785880014
 H          2.9234480304        1.3293021132        1.2868814959
 H          1.5033431590        1.1200025750       -0.7565327611
 H          2.5353714721       -0.1831359764       -1.3412505456
 H          1.9332180241       -1.5778962239        0.6131755183
 H          0.9471668267       -0.2720871556        1.2671942499
 H          0.4580262606       -1.6443061860       -1.4298627595
 H         -0.4154982018       -2.0101638443        0.0914726602
