 xtb: 6.7.1 (edcfbbe)
          04032519443D

  9  8  0     0  0            999 V2000
   -1.6973    0.4087   -0.0196 C   0  0  0  0  0  0  0  0  0  0  0  0
   -0.6207   -0.6539    0.0727 C   0  0  0  0  0  0  0  0  0  0  0  0
    1.0411    0.1393   -0.0270 S   0  0  0  0  0  0  0  0  0  0  0  0
   -2.6785   -0.0559    0.0389 H   0  0  0  0  0  0  0  0  0  0  0  0
   -1.5970    1.1229    0.7950 H   0  0  0  0  0  0  0  0  0  0  0  0
   -1.6191    0.9482   -0.9612 H   0  0  0  0  0  0  0  0  0  0  0  0
   -0.6913   -1.3591   -0.7540 H   0  0  0  0  0  0  0  0  0  0  0  0
   -0.6690   -1.1822    1.0236 H   0  0  0  0  0  0  0  0  0  0  0  0
    1.7396   -0.9839    0.0783 H   0  0  0  0  0  0  0  0  0  0  0  0
  1  2  1  0  0  0  0
  2  3  1  0  0  0  0
  1  4  1  0  0  0  0
  1  5  1  0  0  0  0
  1  6  1  0  0  0  0
  2  7  1  0  0  0  0
  2  8  1  0  0  0  0
  3  9  1  0  0  0  0
M  END
