  19
 
 C          3.6741085745       -0.0145411747       -0.0015604367
 C          2.2813087103        0.6048985835        0.0014936025
 C          1.1852645416       -0.4584969551        0.0040831960
 C         -0.2081986935        0.1638976116        0.0109312122
 C         -1.3081145013       -0.8939012262        0.0105929851
 C         -2.6815399583       -0.3168091431        0.0015324290
 O         -2.9577581982        0.8586976530        0.0010782159
 H          4.4363653954        0.7605814236       -0.0025994465
 H          3.8135740554       -0.6347177234       -0.8840979083
 H          3.8169422206       -0.6356658700        0.8797553859
 H          2.1642963664        1.2400842137       -0.8793207725
 H          2.1682590382        1.2403763127        0.8826121524
 H          1.3044735263       -1.0936917000        0.8845824862
 H          1.2970935711       -1.0900069018       -0.8800312902
 H         -0.3313461993        0.8044690146       -0.8650299724
 H         -0.3254088450        0.7988145074        0.8917311327
 H         -1.2204044786       -1.5465398048       -0.8621319765
 H         -1.2290959395       -1.5383333631        0.8902557691
 H         -3.4884218726       -1.0737980880       -0.0039530097
          19
        -23.01813512
 C          2.7220651696       -1.0200215201        0.1531710235
 C          1.4105759148       -0.4235938254       -0.3453171671
 C          1.1599075905        0.9604957680        0.2465082907
 C         -0.1464868100        1.5948476586       -0.2295813206
 C         -1.3868462972        0.8802849713        0.3118973970
 C         -1.6722829850       -0.4228141545       -0.3502638528
 O         -2.1268909590       -1.4037342363        0.1934789375
 H          3.5589029280       -0.3827843786       -0.1234740958
 H          2.8818036618       -2.0052816320       -0.2776697343
 H          2.7084902076       -1.1180929725        1.2362863116
 H          0.5884644246       -1.0922426871       -0.0757432192
 H          1.4370319549       -0.3533345293       -1.4352122663
 H          1.9880013766        1.6153931310       -0.0326848324
 H          1.1499330455        0.8878885063        1.3362354636
 H         -0.1752463754        1.5964449743       -1.3208348307
 H         -0.1727988291        2.6311639952        0.1090807152
 H         -1.3253714179        0.7383244888        1.3920690588
 H         -2.2652819372        1.5000980631        0.1053407137
 H         -1.4813484672       -0.4346247046       -1.4394076891
