  23
 
 C         -3.7951568532        0.3589068531        0.0004920428
 C         -2.5351177581       -0.4988850087       -0.0074261200
 C         -1.2678129173        0.3530343672       -0.0072218755
 C         -0.0005613640       -0.4989554723       -0.0023061011
 C          1.2646496368        0.3557350352       -0.0006888108
 C          2.5347167954       -0.4922442379        0.0003984051
 C          3.7917954768        0.3698593473        0.0026021537
 H         -4.6841063244       -0.2667101549        0.0030192335
 H         -3.8256321028        0.9978309245       -0.8792421186
 H         -3.8170801534        0.9924550120        0.8843266719
 H         -2.5375077019       -1.1405026577       -0.8913438646
 H         -2.5318062889       -1.1474563984        0.8714404067
 H         -1.2663969786        0.9969128375       -0.8898190647
 H         -1.2703436038        1.0003301186        0.8728863097
 H         -0.0026477919       -1.1429330112        0.8804512274
 H          0.0022633127       -1.1469368983       -0.8821527860
 H          1.2623575502        1.0010734598        0.8809342001
 H          1.2641733979        1.0013492549       -0.8820907941
 H          2.5357616963       -1.1381775865        0.8812831530
 H          2.5381341149       -1.1365161697       -0.8816480921
 H          4.6831140491       -0.2526484989        0.0001538090
 H          3.8152305052        1.0090496043       -0.8771235280
 H          3.8162606894        1.0034602456        0.8862722265
          23
        -23.15876110
 C         -3.7945896804        0.3623276075        0.0018856308
 C         -2.5347758399       -0.4955112612       -0.0035963102
 C         -1.2667824993        0.3554750806        0.0005457663
 C          0.0000021343       -0.4969769438        0.0007600244
 C          1.2667623689        0.3555469051       -0.0006919077
 C          2.5347255068       -0.4954734712        0.0028495514
 C          3.7946580132        0.3622787973       -0.0017150872
 H         -4.6838390647       -0.2632867783       -0.0064288378
 H         -3.8193058260        1.0074986899       -0.8735744781
 H         -3.8234585778        0.9899652038        0.8898563058
 H         -2.5351477228       -1.1355449332       -0.8888647798
 H         -2.5343443236       -1.1459802337        0.8740423846
 H         -1.2653882387        1.0030753726       -0.8795193689
 H         -1.2683267012        0.9992471454        0.8833844305
 H          0.0003689576       -1.1422660241        0.8826290543
 H         -0.0003766682       -1.1439212930       -0.8799144175
 H          1.2662210102        1.0038061344        0.8788923809
 H          1.2674981902        0.9986138692       -0.8840946733
 H          2.5350008871       -1.1365487373        0.8873364269
 H          2.5343459999       -1.1448784399       -0.8755390100
 H          4.6837330038       -0.2634882808        0.0056383249
 H          3.8234548405        0.9910664571       -0.8888860060
 H          3.8195641900        1.0062901228        0.8745933820
