 xtb: 6.7.1 (edcfbbe)
          04092505213D

 41 40  0     0  0            999 V2000
    3.8197   -0.3713   -2.3380 C   0  0  0  0  0  0  0  0  0  0  0  0
    2.5195    0.3870   -2.1842 C   0  0  0  0  0  0  0  0  0  0  0  0
    1.7924   -0.0585   -1.0242 O   0  0  0  0  0  0  0  0  0  0  0  0
    2.2648    0.2733    0.4468 P   0  0  0  0  0  0  0  0  0  0  0  0
    3.2738    1.9329    0.6924 S   0  0  0  0  0  0  0  0  0  0  0  0
    2.9951   -1.0953    0.8305 O   0  0  0  0  0  0  0  0  0  0  0  0
    3.5820   -1.2944    2.1313 C   0  0  0  0  0  0  0  0  0  0  0  0
    5.0507   -0.9180    2.1304 C   0  0  0  0  0  0  0  0  0  0  0  0
    0.4523    0.1935    1.5078 S   0  0  0  0  0  0  0  0  0  0  0  0
   -0.2322   -1.3735    0.8285 C   0  0  0  0  0  0  0  0  0  0  0  0
   -2.0263   -1.3367    0.8622 S   0  0  0  0  0  0  0  0  0  0  0  0
   -2.2896    0.0922   -0.7043 P   0  0  0  0  0  0  0  0  0  0  0  0
   -1.1623   -0.2280   -2.2740 S   0  0  0  0  0  0  0  0  0  0  0  0
   -1.9962    1.5453   -0.1660 O   0  0  0  0  0  0  0  0  0  0  0  0
   -2.8305    2.3315    0.7198 C   0  0  0  0  0  0  0  0  0  0  0  0
   -2.9923    1.7061    2.0897 C   0  0  0  0  0  0  0  0  0  0  0  0
   -3.8639    0.1290   -0.8992 O   0  0  0  0  0  0  0  0  0  0  0  0
   -4.7096   -1.0311   -1.0207 C   0  0  0  0  0  0  0  0  0  0  0  0
   -4.2904   -1.9445   -2.1528 C   0  0  0  0  0  0  0  0  0  0  0  0
    4.4743   -0.1455   -1.4967 H   0  0  0  0  0  0  0  0  0  0  0  0
    3.6295   -1.4410   -2.3621 H   0  0  0  0  0  0  0  0  0  0  0  0
    4.3065   -0.0678   -3.2593 H   0  0  0  0  0  0  0  0  0  0  0  0
    1.8274    0.2015   -3.0081 H   0  0  0  0  0  0  0  0  0  0  0  0
    2.7030    1.4621   -2.0889 H   0  0  0  0  0  0  0  0  0  0  0  0
    3.0280   -0.7049    2.8697 H   0  0  0  0  0  0  0  0  0  0  0  0
    3.4469   -2.3585    2.3351 H   0  0  0  0  0  0  0  0  0  0  0  0
    5.1676    0.1425    1.9181 H   0  0  0  0  0  0  0  0  0  0  0  0
    5.4750   -1.1318    3.1061 H   0  0  0  0  0  0  0  0  0  0  0  0
    5.5818   -1.4886    1.3738 H   0  0  0  0  0  0  0  0  0  0  0  0
    0.0794   -2.2030    1.4572 H   0  0  0  0  0  0  0  0  0  0  0  0
    0.1094   -1.4834   -0.2010 H   0  0  0  0  0  0  0  0  0  0  0  0
   -2.2971    3.2819    0.7769 H   0  0  0  0  0  0  0  0  0  0  0  0
   -3.7976    2.4751    0.2344 H   0  0  0  0  0  0  0  0  0  0  0  0
   -3.5011    2.4128    2.7380 H   0  0  0  0  0  0  0  0  0  0  0  0
   -3.5821    0.7942    2.0300 H   0  0  0  0  0  0  0  0  0  0  0  0
   -2.0184    1.4708    2.5147 H   0  0  0  0  0  0  0  0  0  0  0  0
   -4.6939   -1.5656   -0.0671 H   0  0  0  0  0  0  0  0  0  0  0  0
   -5.7001   -0.6072   -1.1949 H   0  0  0  0  0  0  0  0  0  0  0  0
   -3.3037   -2.3600   -1.9541 H   0  0  0  0  0  0  0  0  0  0  0  0
   -5.0048   -2.7562   -2.2444 H   0  0  0  0  0  0  0  0  0  0  0  0
   -4.2475   -1.3940   -3.0897 H   0  0  0  0  0  0  0  0  0  0  0  0
  1  2  1  0  0  0  0
  2  3  1  0  0  0  0
  3  4  2  0  0  0  0
  4  5  2  0  0  0  0
  4  6  1  0  0  0  0
  6  7  1  0  0  0  0
  7  8  1  0  0  0  0
  4  9  1  0  0  0  0
  9 10  1  0  0  0  0
 10 11  1  0  0  0  0
 11 12  1  0  0  0  0
 12 13  2  0  0  0  0
 12 14  2  0  0  0  0
 14 15  1  0  0  0  0
 15 16  1  0  0  0  0
 12 17  2  0  0  0  0
 17 18  1  0  0  0  0
 18 19  1  0  0  0  0
  1 20  1  0  0  0  0
  1 21  1  0  0  0  0
  1 22  1  0  0  0  0
  2 23  1  0  0  0  0
  2 24  1  0  0  0  0
  7 25  1  0  0  0  0
  7 26  1  0  0  0  0
  8 27  1  0  0  0  0
  8 28  1  0  0  0  0
  8 29  1  0  0  0  0
 10 30  1  0  0  0  0
 10 31  1  0  0  0  0
 15 32  1  0  0  0  0
 15 33  1  0  0  0  0
 16 34  1  0  0  0  0
 16 35  1  0  0  0  0
 16 36  1  0  0  0  0
 18 37  1  0  0  0  0
 18 38  1  0  0  0  0
 19 39  1  0  0  0  0
 19 40  1  0  0  0  0
 19 41  1  0  0  0  0
M  END
