41
 xtb: 6.7.1 (edcfbbe)
C            4.47141267507441       -1.04924125717119       -2.81716803975680
C            4.56398315848936       -1.58585070991088       -1.41052339584270
O            3.24583653319771       -1.68408314605693       -0.76727055419854
P            2.47088855857730       -0.40945932406608       -0.15634776382005
S            3.57448524285675        1.03597063710742        0.54292208890089
O            1.46645250938200       -1.12985323121755        0.86714774042494
C            1.95910899423833       -1.66302366995633        2.15039625958629
C            1.04287423059323       -1.17516636445714        3.24249870888100
S            1.13667002435766        0.08939015061418       -1.72207495524266
C            0.63931563822166        1.79379956865602       -1.26020810901355
S           -0.29028206638239        2.01963299646273        0.30676556679735
P           -2.04886341730199        0.90726837028083       -0.07258610634071
S           -2.70778956280945        0.93275519599521       -1.90615489797649
O           -3.03373783569779        1.47688992076391        1.06736384234551
C           -3.79347676136514        2.72169364749111        0.86264605635697
C           -5.26424606991925        2.39774247110828        0.81338024532342
O           -1.66233958604187       -0.51752986761956        0.55210578135172
C           -2.55951887490966       -1.67909722985580        0.43049106011560
C           -1.69968891151785       -2.91544518094665        0.47393610443199
H            3.77745910306391       -1.64255154070462       -3.41963541932215
H            4.15205253355806       -0.00346439014404       -2.83048110191358
H            5.46359410197056       -1.10780201357806       -3.27663587180315
H            5.20822089581380       -0.96807636615522       -0.77799090313736
H            4.93032568821786       -2.61422198044699       -1.39617575576379
H            1.94497914773589       -2.75179353425881        2.05139703038153
H            2.98989029025141       -1.33244912041047        2.31262276058785
H            1.08212837090840       -0.08502577641740        3.32493751381868
H            0.00982468031874       -1.48099061812359        3.05221550365665
H            1.36094051396885       -1.60822693853560        4.19625278944798
H            0.03507636724114        2.15027792364439       -2.09953758657847
H            1.52964593728056        2.42133360227500       -1.15800925558518
H           -3.54051001005150        3.35772319863482        1.71441038376116
H           -3.45495102280433        3.20891660165619       -0.05674655490688
H           -5.58264292450995        1.89132846452719        1.72906345458153
H           -5.83224434819686        3.32883374685329        0.71882698366911
H           -5.49504778011014        1.76113312335276       -0.04545732226157
H           -3.26396315217367       -1.63278053103123        1.26667802372194
H           -3.10985833358661       -1.60381953814014       -0.51280687012164
H           -1.12531350985361       -2.96440171993248        1.40404270799429
H           -2.34516143261772       -3.79780549881219        0.42102457286895
H           -1.00908647413673       -2.93937364765585       -0.37421790095476
