41
 xtb: 6.7.1 (edcfbbe)
C            4.43090954831117       -1.17944575219980       -2.77682349386280
C            4.56659274773542       -1.60944715874356       -1.33745707838725
O            3.26871154671735       -1.65461819602077       -0.64880542284778
P            2.51898347180910       -0.33794848838207       -0.10143474541778
S            3.64196517388588        1.15560656050405        0.44780301857014
O            1.55386060772219       -0.97906823871202        1.01209575580927
C            2.06329695745790       -1.28248496314287        2.35903963289848
C            0.88274792826712       -1.71862959681282        3.18727855923354
S            1.12738864390954        0.03576937036149       -1.65257193235796
C            0.59173675298140        1.74306918221333       -1.24761093057163
S           -0.32281374600752        2.00502156133730        0.32333031355812
P           -2.06177738657732        0.84368164434830        0.00617848438526
S           -2.72628125408864        0.76997438346869       -1.82431871740944
O           -3.05665973584146        1.44774632248888        1.11998348046385
C           -3.82293550285645        2.67970952548670        0.86783989472879
C           -5.29258555725897        2.34820397422212        0.84257423429680
O           -1.65287438420483       -0.54259604969209        0.69806584245961
C           -2.54359622823506       -1.71660388430502        0.63790801645127
C           -1.75052899003596       -2.88226558627511        0.10719557026061
H            5.40693442049141       -1.28039944402292       -3.26205567333926
H            3.71506650664993       -1.81123383490735       -3.31021621374113
H            4.11714623360092       -0.13538062541460       -2.85955124769378
H            5.23163254226739       -0.94911542548385       -0.77313888722216
H            4.93143543704268       -2.63540868851150       -1.25792313163975
H            2.81742734679859       -2.07128306752596        2.27069380668029
H            2.52892912241575       -0.37797632736062        2.76198552619356
H            0.13265484881292       -0.92449532244040        3.24381044525604
H            0.42043082908317       -2.61900045040683        2.77321304837624
H            1.22678601047976       -1.94280966273020        4.20162001842724
H           -0.03358489651222        2.05298663380680       -2.08962171669845
H            1.46691503899745        2.39656555638905       -1.18182576830422
H           -3.56750999641252        3.35260379542792        1.68971294871738
H           -3.49292057237465        3.12862396852723       -0.07354280928079
H           -5.60155273444386        1.87625381470934        1.77933755537019
H           -5.86499918207489        3.27283031420832        0.71686880453733
H           -5.52731247837243        1.67811228050574        0.01094258849043
H           -2.88846383471898       -1.88102207327101        1.66213205182254
H           -3.40515222216344       -1.49008981982350        0.00257686428011
H           -0.87181480619773       -3.07072037714774        0.73066844773654
H           -2.37953844079819       -3.77797182676023        0.11635648912577
H           -1.42513772867425       -2.69550953968844       -0.92018250764539
