 xtb: 6.7.1 (edcfbbe)
          04092505203D

 41 40  0     0  0            999 V2000
    3.3575    1.9476   -1.7769 C   0  0  0  0  0  0  0  0  0  0  0  0
    2.1010    1.1104   -1.6721 C   0  0  0  0  0  0  0  0  0  0  0  0
    1.5124    1.2377   -0.3518 O   0  0  0  0  0  0  0  0  0  0  0  0
    1.7241    0.1607    0.7758 P   0  0  0  0  0  0  0  0  0  0  0  0
    1.1162    0.7189    2.5474 S   0  0  0  0  0  0  0  0  0  0  0  0
    3.2941   -0.0856    0.6818 O   0  0  0  0  0  0  0  0  0  0  0  0
    3.9610   -0.9808    1.5933 C   0  0  0  0  0  0  0  0  0  0  0  0
    5.4544   -0.7922    1.4202 C   0  0  0  0  0  0  0  0  0  0  0  0
    0.9814   -1.7168    0.0728 S   0  0  0  0  0  0  0  0  0  0  0  0
   -0.4103   -1.9660    1.2056 C   0  0  0  0  0  0  0  0  0  0  0  0
   -2.0327   -1.9225    0.3964 S   0  0  0  0  0  0  0  0  0  0  0  0
   -1.9175   -0.0526   -0.6081 P   0  0  0  0  0  0  0  0  0  0  0  0
   -1.1041   -0.0429   -2.3948 S   0  0  0  0  0  0  0  0  0  0  0  0
   -1.2219    0.8361    0.5092 O   0  0  0  0  0  0  0  0  0  0  0  0
   -1.6298    2.1872    0.8256 C   0  0  0  0  0  0  0  0  0  0  0  0
   -1.3242    3.1444   -0.3060 C   0  0  0  0  0  0  0  0  0  0  0  0
   -3.4116    0.4824   -0.5925 O   0  0  0  0  0  0  0  0  0  0  0  0
   -4.3376    0.1592   -1.6447 C   0  0  0  0  0  0  0  0  0  0  0  0
   -4.7636   -1.2928   -1.5875 C   0  0  0  0  0  0  0  0  0  0  0  0
    4.1111    1.5838   -1.0837 H   0  0  0  0  0  0  0  0  0  0  0  0
    3.7385    1.8819   -2.7912 H   0  0  0  0  0  0  0  0  0  0  0  0
    3.1352    2.9852   -1.5433 H   0  0  0  0  0  0  0  0  0  0  0  0
    2.3033    0.0547   -1.8719 H   0  0  0  0  0  0  0  0  0  0  0  0
    1.3250    1.4566   -2.3583 H   0  0  0  0  0  0  0  0  0  0  0  0
    3.6402   -0.7401    2.6122 H   0  0  0  0  0  0  0  0  0  0  0  0
    3.6567   -2.0039    1.3545 H   0  0  0  0  0  0  0  0  0  0  0  0
    5.7312    0.2322    1.6528 H   0  0  0  0  0  0  0  0  0  0  0  0
    5.9769   -1.4652    2.0918 H   0  0  0  0  0  0  0  0  0  0  0  0
    5.7408   -1.0126    0.3959 H   0  0  0  0  0  0  0  0  0  0  0  0
   -0.3599   -1.2046    1.9891 H   0  0  0  0  0  0  0  0  0  0  0  0
   -0.3245   -2.9668    1.6222 H   0  0  0  0  0  0  0  0  0  0  0  0
   -2.6948    2.1765    1.0625 H   0  0  0  0  0  0  0  0  0  0  0  0
   -1.0501    2.4217    1.7210 H   0  0  0  0  0  0  0  0  0  0  0  0
   -1.8672    2.8483   -1.2031 H   0  0  0  0  0  0  0  0  0  0  0  0
   -1.6241    4.1473   -0.0191 H   0  0  0  0  0  0  0  0  0  0  0  0
   -0.2588    3.1337   -0.5238 H   0  0  0  0  0  0  0  0  0  0  0  0
   -5.1762    0.8355   -1.4746 H   0  0  0  0  0  0  0  0  0  0  0  0
   -3.8627    0.3850   -2.6055 H   0  0  0  0  0  0  0  0  0  0  0  0
   -5.5207   -1.4769   -2.3427 H   0  0  0  0  0  0  0  0  0  0  0  0
   -3.9061   -1.9376   -1.7805 H   0  0  0  0  0  0  0  0  0  0  0  0
   -5.1634   -1.5327   -0.6059 H   0  0  0  0  0  0  0  0  0  0  0  0
  1  2  1  0  0  0  0
  2  3  1  0  0  0  0
  3  4  2  0  0  0  0
  4  5  2  0  0  0  0
  4  6  2  0  0  0  0
  6  7  1  0  0  0  0
  7  8  1  0  0  0  0
  4  9  1  0  0  0  0
  9 10  1  0  0  0  0
 10 11  1  0  0  0  0
 11 12  1  0  0  0  0
 12 13  2  0  0  0  0
 12 14  1  0  0  0  0
 14 15  1  0  0  0  0
 15 16  1  0  0  0  0
 12 17  2  0  0  0  0
 17 18  1  0  0  0  0
 18 19  1  0  0  0  0
  1 20  1  0  0  0  0
  1 21  1  0  0  0  0
  1 22  1  0  0  0  0
  2 23  1  0  0  0  0
  2 24  1  0  0  0  0
  7 25  1  0  0  0  0
  7 26  1  0  0  0  0
  8 27  1  0  0  0  0
  8 28  1  0  0  0  0
  8 29  1  0  0  0  0
 10 30  1  0  0  0  0
 10 31  1  0  0  0  0
 15 32  1  0  0  0  0
 15 33  1  0  0  0  0
 16 34  1  0  0  0  0
 16 35  1  0  0  0  0
 16 36  1  0  0  0  0
 18 37  1  0  0  0  0
 18 38  1  0  0  0  0
 19 39  1  0  0  0  0
 19 40  1  0  0  0  0
 19 41  1  0  0  0  0
M  END
