 xtb: 6.7.1 (edcfbbe)
          04092507313D

 38 37  0     0  0            999 V2000
    5.0155   -0.1239   -0.9194 C   0  0  0  0  0  0  0  0  0  0  0  0
    4.4660   -1.4364   -1.4544 C   0  0  0  0  0  0  0  0  0  0  0  0
    3.0283   -1.3866   -1.5279 O   0  0  0  0  0  0  0  0  0  0  0  0
    2.3250   -1.9203   -0.5420 C   0  0  0  0  0  0  0  0  0  0  0  0
    2.7975   -2.5297    0.3895 O   0  0  0  0  0  0  0  0  0  0  0  0
    0.8326   -1.7559   -0.7716 C   0  0  0  0  0  0  0  0  0  0  0  0
    0.4972   -0.3155   -1.1396 C   0  0  0  0  0  0  0  0  0  0  0  0
    1.0094   -0.0534   -2.0730 H   0  0  0  0  0  0  0  0  0  0  0  0
    0.9997    0.6609   -0.0918 C   0  0  0  0  0  0  0  0  0  0  0  0
    2.0136    0.4623    0.5361 O   0  0  0  0  0  0  0  0  0  0  0  0
    0.2794    1.7646   -0.0387 O   0  0  0  0  0  0  0  0  0  0  0  0
    0.7587    2.8521    0.7814 C   0  0  0  0  0  0  0  0  0  0  0  0
    0.3762    2.6885    2.2415 C   0  0  0  0  0  0  0  0  0  0  0  0
   -1.2651   -0.0827   -1.5252 S   0  0  0  0  0  0  0  0  0  0  0  0
   -2.0957    0.1712    0.4140 P   0  0  0  0  0  0  0  0  0  0  0  0
   -1.1161   -0.5797    1.9382 S   0  0  0  0  0  0  0  0  0  0  0  0
   -2.4568    1.6957    0.6072 O   0  0  0  0  0  0  0  0  0  0  0  0
   -3.2264    2.4294   -0.3673 C   0  0  0  0  0  0  0  0  0  0  0  0
   -3.5613   -0.4406    0.2076 O   0  0  0  0  0  0  0  0  0  0  0  0
   -3.7655   -1.8471    0.0388 C   0  0  0  0  0  0  0  0  0  0  0  0
    4.7677    0.6918   -1.5928 H   0  0  0  0  0  0  0  0  0  0  0  0
    4.5797    0.0838    0.0559 H   0  0  0  0  0  0  0  0  0  0  0  0
    6.0935   -0.1958   -0.8216 H   0  0  0  0  0  0  0  0  0  0  0  0
    4.7501   -2.2700   -0.8062 H   0  0  0  0  0  0  0  0  0  0  0  0
    4.7947   -1.6202   -2.4783 H   0  0  0  0  0  0  0  0  0  0  0  0
    0.3221   -2.0590    0.1446 H   0  0  0  0  0  0  0  0  0  0  0  0
    0.5367   -2.4160   -1.5884 H   0  0  0  0  0  0  0  0  0  0  0  0
    1.8462    2.8971    0.6750 H   0  0  0  0  0  0  0  0  0  0  0  0
    0.2911    3.7343    0.3441 H   0  0  0  0  0  0  0  0  0  0  0  0
    0.8413    1.7959    2.6560 H   0  0  0  0  0  0  0  0  0  0  0  0
    0.7168    3.5553    2.7980 H   0  0  0  0  0  0  0  0  0  0  0  0
   -0.7022    2.5937    2.3437 H   0  0  0  0  0  0  0  0  0  0  0  0
   -2.7359    2.3809   -1.3393 H   0  0  0  0  0  0  0  0  0  0  0  0
   -3.2525    3.4511    0.0021 H   0  0  0  0  0  0  0  0  0  0  0  0
   -4.2305    2.0160   -0.4333 H   0  0  0  0  0  0  0  0  0  0  0  0
   -3.4321   -2.1534   -0.9525 H   0  0  0  0  0  0  0  0  0  0  0  0
   -4.8356   -2.0032    0.1484 H   0  0  0  0  0  0  0  0  0  0  0  0
   -3.2210   -2.4012    0.8050 H   0  0  0  0  0  0  0  0  0  0  0  0
  1  2  1  0  0  0  0
  2  3  1  0  0  0  0
  3  4  1  0  0  0  0
  4  5  2  0  0  0  0
  4  6  1  0  0  0  0
  6  7  1  0  0  0  0
  7  8  1  0  0  0  0
  7  9  1  0  0  0  0
  9 10  2  0  0  0  0
  9 11  1  0  0  0  0
 11 12  1  0  0  0  0
 12 13  1  0  0  0  0
  7 14  1  0  0  0  0
 14 15  1  0  0  0  0
 15 16  2  0  0  0  0
 15 17  2  0  0  0  0
 17 18  1  0  0  0  0
 15 19  1  0  0  0  0
 19 20  1  0  0  0  0
  1 21  1  0  0  0  0
  1 22  1  0  0  0  0
  1 23  1  0  0  0  0
  2 24  1  0  0  0  0
  2 25  1  0  0  0  0
  6 26  1  0  0  0  0
  6 27  1  0  0  0  0
 12 28  1  0  0  0  0
 12 29  1  0  0  0  0
 13 30  1  0  0  0  0
 13 31  1  0  0  0  0
 13 32  1  0  0  0  0
 18 33  1  0  0  0  0
 18 34  1  0  0  0  0
 18 35  1  0  0  0  0
 20 36  1  0  0  0  0
 20 37  1  0  0  0  0
 20 38  1  0  0  0  0
M  END
