27
 xtb: 6.7.1 (edcfbbe)
C            3.05173213115629       -1.66111995207075       -0.47353789892748
C            1.70709610547118       -1.09437228366184       -0.19243295902791
C            1.46271251167399        0.06060657651124        0.48008350762477
C            0.12154983357762        0.51672389759184        0.76934079755330
O           -0.12264173524483        1.43364849623247        1.55121394612364
N           -0.90846730545424       -0.16731128706687        0.07276865067131
C           -0.70099778122418       -1.46809669801255       -0.37649413879185
O           -1.58640271545201       -2.29169892764216       -0.59094905298032
N            0.62013013086716       -1.81608780676412       -0.59350445784018
C           -2.31463585594006        0.43861103099071        0.00277038792080
C           -2.21417833407845        1.96745874330201       -0.14455381238225
C           -3.04094834480891       -0.05977028397445       -1.25929079981243
C           -3.09070665275194        0.05673211948021        1.26045382292696
Cl           2.77928004318868        0.99575199275282        1.13132951912571
H            2.98253883656735       -2.52061593448893       -1.14155794396115
H            3.52568161211019       -1.97874030694039        0.46077642388844
H            3.69539963086774       -0.90409006477326       -0.92723053587410
H            0.76163019755056       -2.74804303364983       -0.96377488528022
H           -3.19784909527081        2.32871572779376       -0.45363461987646
H           -1.94481034146191        2.47357379818578        0.77859030912776
H           -1.49598448622765        2.24240963065777       -0.92389271083953
H           -3.90655029401153        0.58897989942210       -1.41122820483121
H           -3.39764742590751       -1.08262327101559       -1.17376951884898
H           -2.40059306079648        0.02293940126961       -2.14338497793767
H           -3.19064159903626       -1.02940650494944        1.34199556301070
H           -2.59731401633732        0.43693373618723        2.15910956685625
H           -4.09331709377258        0.49248735810285        1.20709285384659
