 xtb: 6.7.1 (edcfbbe)
          04032519423D

 20 20  0     0  0            999 V2000
    0.6280    1.6892   -0.0249 C   0  0  0  0  0  0  0  0  0  0  0  0
    1.4154    0.3879   -0.2515 C   0  0  0  0  0  0  0  0  0  0  0  0
    1.6279    0.2615   -1.3183 H   0  0  0  0  0  0  0  0  0  0  0  0
    0.5491   -0.7906    0.2167 C   0  0  0  0  0  0  0  0  0  0  0  0
    0.3621   -0.6927    1.3006 H   0  0  0  0  0  0  0  0  0  0  0  0
   -0.8017   -0.7415   -0.5182 C   0  0  0  0  0  0  0  0  0  0  0  0
   -0.6256   -0.8875   -1.5888 H   0  0  0  0  0  0  0  0  0  0  0  0
   -1.4668    0.6293   -0.3018 C   0  0  0  0  0  0  0  0  0  0  0  0
   -2.3443    0.7182   -0.9577 H   0  0  0  0  0  0  0  0  0  0  0  0
   -0.6241    1.6807   -0.6948 O   0  0  0  0  0  0  0  0  0  0  0  0
   -1.8282    0.7046    1.0437 O   0  0  0  0  0  0  0  0  0  0  0  0
   -1.6401   -1.7879   -0.1050 O   0  0  0  0  0  0  0  0  0  0  0  0
    1.2167   -2.0016   -0.0413 O   0  0  0  0  0  0  0  0  0  0  0  0
    2.6695    0.4371    0.3734 O   0  0  0  0  0  0  0  0  0  0  0  0
    1.1731    2.5393   -0.4332 H   0  0  0  0  0  0  0  0  0  0  0  0
    0.4733    1.8335    1.0521 H   0  0  0  0  0  0  0  0  0  0  0  0
   -2.3786    1.4860    1.2028 H   0  0  0  0  0  0  0  0  0  0  0  0
   -2.0031   -1.5648    0.7677 H   0  0  0  0  0  0  0  0  0  0  0  0
    0.5641   -2.7192   -0.0204 H   0  0  0  0  0  0  0  0  0  0  0  0
    2.5622    0.3834    1.3345 H   0  0  0  0  0  0  0  0  0  0  0  0
  1  2  1  0  0  0  0
  2  3  1  0  0  0  0
  2  4  1  0  0  0  0
  4  5  1  0  0  0  0
  4  6  1  0  0  0  0
  6  7  1  0  0  0  0
  6  8  1  0  0  0  0
  8  9  1  0  0  0  0
  1 10  1  0  0  0  0
  8 10  1  0  0  0  0
  8 11  1  0  0  0  0
  6 12  1  0  0  0  0
  4 13  1  0  0  0  0
  2 14  1  0  0  0  0
  1 15  1  0  0  0  0
  1 16  1  0  0  0  0
 11 17  1  0  0  0  0
 12 18  1  0  0  0  0
 13 19  1  0  0  0  0
 14 20  1  0  0  0  0
M  END
