 xtb: 6.7.1 (edcfbbe)
          04092509473D

 38 37  0     0  0            999 V2000
    4.8368   -3.7720   -1.6834 C   0  0  0  0  0  0  0  0  0  0  0  0
    4.1736   -2.7335   -0.7996 C   0  0  0  0  0  0  0  0  0  0  0  0
    3.1464   -2.0798   -1.5738 O   0  0  0  0  0  0  0  0  0  0  0  0
    2.4108   -1.1621   -0.9886 C   0  0  0  0  0  0  0  0  0  0  0  0
    2.5209   -0.8324    0.1751 O   0  0  0  0  0  0  0  0  0  0  0  0
    1.4182   -0.5410   -1.9490 C   0  0  0  0  0  0  0  0  0  0  0  0
    0.3504    0.2314   -1.1831 C   0  0  0  0  0  0  0  0  0  0  0  0
   -0.2673    0.8130   -1.8768 H   0  0  0  0  0  0  0  0  0  0  0  0
    1.0151    1.2210   -0.2414 C   0  0  0  0  0  0  0  0  0  0  0  0
    1.8858    1.9681   -0.6328 O   0  0  0  0  0  0  0  0  0  0  0  0
    0.5240    1.2304    0.9788 O   0  0  0  0  0  0  0  0  0  0  0  0
    1.1520    2.1479    1.9026 C   0  0  0  0  0  0  0  0  0  0  0  0
    0.6538    1.8715    3.3052 C   0  0  0  0  0  0  0  0  0  0  0  0
   -0.7528   -0.9315   -0.3180 S   0  0  0  0  0  0  0  0  0  0  0  0
   -2.2749    0.4328    0.2618 P   0  0  0  0  0  0  0  0  0  0  0  0
   -2.3538    2.1273   -0.7138 S   0  0  0  0  0  0  0  0  0  0  0  0
   -3.5983   -0.4653    0.1541 O   0  0  0  0  0  0  0  0  0  0  0  0
   -4.1681   -0.8406   -1.1058 C   0  0  0  0  0  0  0  0  0  0  0  0
   -2.1995    0.6245    1.8264 O   0  0  0  0  0  0  0  0  0  0  0  0
   -2.1104   -0.5027    2.7205 C   0  0  0  0  0  0  0  0  0  0  0  0
    5.6302   -4.2607   -1.1278 H   0  0  0  0  0  0  0  0  0  0  0  0
    4.1100   -4.5143   -1.9985 H   0  0  0  0  0  0  0  0  0  0  0  0
    5.2574   -3.2969   -2.5645 H   0  0  0  0  0  0  0  0  0  0  0  0
    4.8845   -1.9728   -0.4625 H   0  0  0  0  0  0  0  0  0  0  0  0
    3.7074   -3.1846    0.0815 H   0  0  0  0  0  0  0  0  0  0  0  0
    0.9778   -1.3148   -2.5759 H   0  0  0  0  0  0  0  0  0  0  0  0
    1.9731    0.1565   -2.5814 H   0  0  0  0  0  0  0  0  0  0  0  0
    2.2342    2.0047    1.8187 H   0  0  0  0  0  0  0  0  0  0  0  0
    0.9099    3.1647    1.5769 H   0  0  0  0  0  0  0  0  0  0  0  0
    1.1416    2.5587    3.9892 H   0  0  0  0  0  0  0  0  0  0  0  0
   -0.4209    2.0195    3.3536 H   0  0  0  0  0  0  0  0  0  0  0  0
    0.8923    0.8516    3.5920 H   0  0  0  0  0  0  0  0  0  0  0  0
   -4.3286    0.0441   -1.7235 H   0  0  0  0  0  0  0  0  0  0  0  0
   -5.1181   -1.3124   -0.8662 H   0  0  0  0  0  0  0  0  0  0  0  0
   -3.5114   -1.5417   -1.6202 H   0  0  0  0  0  0  0  0  0  0  0  0
   -1.1936   -1.0569    2.5199 H   0  0  0  0  0  0  0  0  0  0  0  0
   -2.9756   -1.1502    2.5933 H   0  0  0  0  0  0  0  0  0  0  0  0
   -2.0905   -0.0760    3.7196 H   0  0  0  0  0  0  0  0  0  0  0  0
  1  2  1  0  0  0  0
  2  3  1  0  0  0  0
  3  4  4  0  0  0  0
  4  5  2  0  0  0  0
  4  6  1  0  0  0  0
  6  7  1  0  0  0  0
  7  8  1  0  0  0  0
  7  9  1  0  0  0  0
  9 10  2  0  0  0  0
  9 11  1  0  0  0  0
 11 12  1  0  0  0  0
 12 13  1  0  0  0  0
  7 14  1  0  0  0  0
 14 15  1  0  0  0  0
 15 16  2  0  0  0  0
 15 17  1  0  0  0  0
 17 18  1  0  0  0  0
 15 19  2  0  0  0  0
 19 20  1  0  0  0  0
  1 21  1  0  0  0  0
  1 22  1  0  0  0  0
  1 23  1  0  0  0  0
  2 24  1  0  0  0  0
  2 25  1  0  0  0  0
  6 26  1  0  0  0  0
  6 27  1  0  0  0  0
 12 28  1  0  0  0  0
 12 29  1  0  0  0  0
 13 30  1  0  0  0  0
 13 31  1  0  0  0  0
 13 32  1  0  0  0  0
 18 33  1  0  0  0  0
 18 34  1  0  0  0  0
 18 35  1  0  0  0  0
 20 36  1  0  0  0  0
 20 37  1  0  0  0  0
 20 38  1  0  0  0  0
M  END
