 xtb: 6.7.1 (edcfbbe)
          04092507313D

 38 37  0     0  0            999 V2000
    4.7743   -3.6431   -1.7371 C   0  0  0  0  0  0  0  0  0  0  0  0
    3.7108   -3.0362   -0.8435 C   0  0  0  0  0  0  0  0  0  0  0  0
    3.0491   -1.9910   -1.5852 O   0  0  0  0  0  0  0  0  0  0  0  0
    2.3074   -1.1333   -0.9307 C   0  0  0  0  0  0  0  0  0  0  0  0
    2.1255   -1.1557    0.2727 O   0  0  0  0  0  0  0  0  0  0  0  0
    1.7077   -0.0770   -1.8336 C   0  0  0  0  0  0  0  0  0  0  0  0
    0.4799    0.5146   -1.1547 C   0  0  0  0  0  0  0  0  0  0  0  0
    0.1365    1.4130   -1.6745 H   0  0  0  0  0  0  0  0  0  0  0  0
    0.7702    0.8809    0.2870 C   0  0  0  0  0  0  0  0  0  0  0  0
    0.0197    0.5753    1.1982 O   0  0  0  0  0  0  0  0  0  0  0  0
    1.8248    1.6366    0.4045 O   0  0  0  0  0  0  0  0  0  0  0  0
    2.1483    2.1541    1.7135 C   0  0  0  0  0  0  0  0  0  0  0  0
    1.3687    3.4290    1.9910 C   0  0  0  0  0  0  0  0  0  0  0  0
   -0.8937   -0.6943   -1.1509 S   0  0  0  0  0  0  0  0  0  0  0  0
   -2.1933    0.1622    0.2925 P   0  0  0  0  0  0  0  0  0  0  0  0
   -2.3270    2.1222    0.4350 S   0  0  0  0  0  0  0  0  0  0  0  0
   -3.5651   -0.4460   -0.2904 O   0  0  0  0  0  0  0  0  0  0  0  0
   -4.1177    0.0150   -1.5245 C   0  0  0  0  0  0  0  0  0  0  0  0
   -2.2823   -0.7367    1.5983 O   0  0  0  0  0  0  0  0  0  0  0  0
   -1.8663   -0.3701    2.9132 C   0  0  0  0  0  0  0  0  0  0  0  0
    4.3178   -4.0373   -2.6396 H   0  0  0  0  0  0  0  0  0  0  0  0
    5.5060   -2.8902   -2.0136 H   0  0  0  0  0  0  0  0  0  0  0  0
    5.2718   -4.4477   -1.2060 H   0  0  0  0  0  0  0  0  0  0  0  0
    4.1356   -2.6010    0.0664 H   0  0  0  0  0  0  0  0  0  0  0  0
    2.9565   -3.7741   -0.5544 H   0  0  0  0  0  0  0  0  0  0  0  0
    1.4535   -0.5147   -2.7976 H   0  0  0  0  0  0  0  0  0  0  0  0
    2.4538    0.7068   -1.9819 H   0  0  0  0  0  0  0  0  0  0  0  0
    1.9250    1.3831    2.4553 H   0  0  0  0  0  0  0  0  0  0  0  0
    3.2210    2.3415    1.6700 H   0  0  0  0  0  0  0  0  0  0  0  0
    0.2981    3.2329    1.9591 H   0  0  0  0  0  0  0  0  0  0  0  0
    1.6286    3.8025    2.9756 H   0  0  0  0  0  0  0  0  0  0  0  0
    1.6040    4.1831    1.2455 H   0  0  0  0  0  0  0  0  0  0  0  0
   -3.5264   -0.3529   -2.3636 H   0  0  0  0  0  0  0  0  0  0  0  0
   -4.1447    1.1068   -1.5379 H   0  0  0  0  0  0  0  0  0  0  0  0
   -5.1264   -0.3885   -1.5614 H   0  0  0  0  0  0  0  0  0  0  0  0
   -2.5855   -0.8295    3.5883 H   0  0  0  0  0  0  0  0  0  0  0  0
   -1.8734    0.7147    3.0281 H   0  0  0  0  0  0  0  0  0  0  0  0
   -0.8627   -0.7512    3.0949 H   0  0  0  0  0  0  0  0  0  0  0  0
  1  2  1  0  0  0  0
  2  3  1  0  0  0  0
  3  4  4  0  0  0  0
  4  5  2  0  0  0  0
  4  6  1  0  0  0  0
  6  7  1  0  0  0  0
  7  8  1  0  0  0  0
  7  9  1  0  0  0  0
  9 10  2  0  0  0  0
  9 11  4  0  0  0  0
 11 12  1  0  0  0  0
 12 13  1  0  0  0  0
  7 14  1  0  0  0  0
 14 15  1  0  0  0  0
 15 16  2  0  0  0  0
 15 17  1  0  0  0  0
 17 18  1  0  0  0  0
 15 19  2  0  0  0  0
 19 20  1  0  0  0  0
  1 21  1  0  0  0  0
  1 22  1  0  0  0  0
  1 23  1  0  0  0  0
  2 24  1  0  0  0  0
  2 25  1  0  0  0  0
  6 26  1  0  0  0  0
  6 27  1  0  0  0  0
 12 28  1  0  0  0  0
 12 29  1  0  0  0  0
 13 30  1  0  0  0  0
 13 31  1  0  0  0  0
 13 32  1  0  0  0  0
 18 33  1  0  0  0  0
 18 34  1  0  0  0  0
 18 35  1  0  0  0  0
 20 36  1  0  0  0  0
 20 37  1  0  0  0  0
 20 38  1  0  0  0  0
M  END
