 xtb: 6.7.1 (edcfbbe)
          04092505213D

 41 40  0     0  0            999 V2000
    3.1635   -2.7439   -1.5716 C   0  0  0  0  0  0  0  0  0  0  0  0
    4.3283   -1.8582   -1.1852 C   0  0  0  0  0  0  0  0  0  0  0  0
    3.9428   -0.4705   -1.0264 O   0  0  0  0  0  0  0  0  0  0  0  0
    2.8826    0.0715    0.0068 P   0  0  0  0  0  0  0  0  0  0  0  0
    3.1760    1.9622    0.4257 S   0  0  0  0  0  0  0  0  0  0  0  0
    3.0721   -0.9325    1.2271 O   0  0  0  0  0  0  0  0  0  0  0  0
    2.6261   -0.6361    2.5615 C   0  0  0  0  0  0  0  0  0  0  0  0
    1.1340   -0.8467    2.7205 C   0  0  0  0  0  0  0  0  0  0  0  0
    0.9794   -0.3729   -0.8771 S   0  0  0  0  0  0  0  0  0  0  0  0
    0.1937    1.2546   -0.8009 C   0  0  0  0  0  0  0  0  0  0  0  0
   -1.0310    1.4029    0.5193 S   0  0  0  0  0  0  0  0  0  0  0  0
   -2.7025    0.5067   -0.4750 P   0  0  0  0  0  0  0  0  0  0  0  0
   -2.5717    0.5095   -2.4297 S   0  0  0  0  0  0  0  0  0  0  0  0
   -3.9695    1.2846    0.0326 O   0  0  0  0  0  0  0  0  0  0  0  0
   -4.6061    1.1158    1.3257 C   0  0  0  0  0  0  0  0  0  0  0  0
   -3.6763    1.4307    2.4770 C   0  0  0  0  0  0  0  0  0  0  0  0
   -2.8960   -0.9244    0.1933 O   0  0  0  0  0  0  0  0  0  0  0  0
   -2.0576   -2.0487   -0.1343 C   0  0  0  0  0  0  0  0  0  0  0  0
   -2.8134   -3.3124    0.2235 C   0  0  0  0  0  0  0  0  0  0  0  0
    2.4241   -2.7614   -0.7729 H   0  0  0  0  0  0  0  0  0  0  0  0
    2.6877   -2.3766   -2.4774 H   0  0  0  0  0  0  0  0  0  0  0  0
    3.5261   -3.7529   -1.7418 H   0  0  0  0  0  0  0  0  0  0  0  0
    5.0828   -1.8170   -1.9721 H   0  0  0  0  0  0  0  0  0  0  0  0
    4.7817   -2.1937   -0.2507 H   0  0  0  0  0  0  0  0  0  0  0  0
    3.1955   -1.3262    3.1864 H   0  0  0  0  0  0  0  0  0  0  0  0
    2.9020    0.3956    2.8022 H   0  0  0  0  0  0  0  0  0  0  0  0
    0.8575   -1.8408    2.3784 H   0  0  0  0  0  0  0  0  0  0  0  0
    0.8698   -0.7415    3.7678 H   0  0  0  0  0  0  0  0  0  0  0  0
    0.5842   -0.1016    2.1479 H   0  0  0  0  0  0  0  0  0  0  0  0
   -0.3040    1.4201   -1.7572 H   0  0  0  0  0  0  0  0  0  0  0  0
    0.9614    2.0075   -0.6095 H   0  0  0  0  0  0  0  0  0  0  0  0
   -5.4428    1.8145    1.2796 H   0  0  0  0  0  0  0  0  0  0  0  0
   -4.9775    0.0917    1.3890 H   0  0  0  0  0  0  0  0  0  0  0  0
   -3.2555    2.4270    2.3659 H   0  0  0  0  0  0  0  0  0  0  0  0
   -4.2338    1.3798    3.4071 H   0  0  0  0  0  0  0  0  0  0  0  0
   -2.8612    0.7107    2.5123 H   0  0  0  0  0  0  0  0  0  0  0  0
   -1.8156   -2.0116   -1.2017 H   0  0  0  0  0  0  0  0  0  0  0  0
   -1.1310   -1.9606    0.4389 H   0  0  0  0  0  0  0  0  0  0  0  0
   -3.7312   -3.3745   -0.3546 H   0  0  0  0  0  0  0  0  0  0  0  0
   -2.1917   -4.1725   -0.0013 H   0  0  0  0  0  0  0  0  0  0  0  0
   -3.0610   -3.3120    1.2809 H   0  0  0  0  0  0  0  0  0  0  0  0
  1  2  1  0  0  0  0
  2  3  1  0  0  0  0
  3  4  2  0  0  0  0
  4  5  2  0  0  0  0
  4  6  2  0  0  0  0
  6  7  1  0  0  0  0
  7  8  1  0  0  0  0
  4  9  1  0  0  0  0
  9 10  1  0  0  0  0
 10 11  1  0  0  0  0
 11 12  1  0  0  0  0
 12 13  2  0  0  0  0
 12 14  2  0  0  0  0
 14 15  1  0  0  0  0
 15 16  1  0  0  0  0
 12 17  2  0  0  0  0
 17 18  1  0  0  0  0
 18 19  1  0  0  0  0
  1 20  1  0  0  0  0
  1 21  1  0  0  0  0
  1 22  1  0  0  0  0
  2 23  1  0  0  0  0
  2 24  1  0  0  0  0
  7 25  1  0  0  0  0
  7 26  1  0  0  0  0
  8 27  1  0  0  0  0
  8 28  1  0  0  0  0
  8 29  1  0  0  0  0
 10 30  1  0  0  0  0
 10 31  1  0  0  0  0
 15 32  1  0  0  0  0
 15 33  1  0  0  0  0
 16 34  1  0  0  0  0
 16 35  1  0  0  0  0
 16 36  1  0  0  0  0
 18 37  1  0  0  0  0
 18 38  1  0  0  0  0
 19 39  1  0  0  0  0
 19 40  1  0  0  0  0
 19 41  1  0  0  0  0
M  END
