 xtb: 6.7.1 (edcfbbe)
          04092505213D

 41 40  0     0  0            999 V2000
    4.5134    0.9642   -1.9898 C   0  0  0  0  0  0  0  0  0  0  0  0
    4.0533    0.0791   -0.8503 C   0  0  0  0  0  0  0  0  0  0  0  0
    2.9426    0.7469   -0.1913 O   0  0  0  0  0  0  0  0  0  0  0  0
    1.9532   -0.0022    0.7793 P   0  0  0  0  0  0  0  0  0  0  0  0
    0.8764    1.2227    1.8532 S   0  0  0  0  0  0  0  0  0  0  0  0
    2.9404   -0.9130    1.6357 O   0  0  0  0  0  0  0  0  0  0  0  0
    2.5435   -1.5126    2.8800 C   0  0  0  0  0  0  0  0  0  0  0  0
    1.5570   -2.6424    2.6675 C   0  0  0  0  0  0  0  0  0  0  0  0
    0.9838   -1.4515   -0.4797 S   0  0  0  0  0  0  0  0  0  0  0  0
    0.6268   -0.4008   -1.9160 C   0  0  0  0  0  0  0  0  0  0  0  0
   -0.2758    1.1185   -1.5198 S   0  0  0  0  0  0  0  0  0  0  0  0
   -2.0682    0.1632   -0.9411 P   0  0  0  0  0  0  0  0  0  0  0  0
   -2.6401   -1.3595   -2.0212 S   0  0  0  0  0  0  0  0  0  0  0  0
   -3.1445    1.3244   -0.9726 O   0  0  0  0  0  0  0  0  0  0  0  0
   -2.9245    2.7018   -0.5914 C   0  0  0  0  0  0  0  0  0  0  0  0
   -2.6831    2.8642    0.8947 C   0  0  0  0  0  0  0  0  0  0  0  0
   -1.7513   -0.1868    0.5844 O   0  0  0  0  0  0  0  0  0  0  0  0
   -2.3451   -1.3093    1.2570 C   0  0  0  0  0  0  0  0  0  0  0  0
   -3.8157   -1.0731    1.5308 C   0  0  0  0  0  0  0  0  0  0  0  0
    3.7116    1.1168   -2.7077 H   0  0  0  0  0  0  0  0  0  0  0  0
    4.8193    1.9330   -1.6059 H   0  0  0  0  0  0  0  0  0  0  0  0
    5.3543    0.4927   -2.4882 H   0  0  0  0  0  0  0  0  0  0  0  0
    4.8414   -0.0596   -0.1084 H   0  0  0  0  0  0  0  0  0  0  0  0
    3.7203   -0.9019   -1.2011 H   0  0  0  0  0  0  0  0  0  0  0  0
    3.4796   -1.8688    3.3118 H   0  0  0  0  0  0  0  0  0  0  0  0
    2.1110   -0.7339    3.5171 H   0  0  0  0  0  0  0  0  0  0  0  0
    1.3340   -3.1128    3.6196 H   0  0  0  0  0  0  0  0  0  0  0  0
    0.6342   -2.2505    2.2405 H   0  0  0  0  0  0  0  0  0  0  0  0
    1.9670   -3.3816    1.9843 H   0  0  0  0  0  0  0  0  0  0  0  0
    0.0238   -1.0149   -2.5869 H   0  0  0  0  0  0  0  0  0  0  0  0
    1.5515   -0.0889   -2.3946 H   0  0  0  0  0  0  0  0  0  0  0  0
   -2.0803    3.0903   -1.1681 H   0  0  0  0  0  0  0  0  0  0  0  0
   -3.8446    3.1976   -0.9058 H   0  0  0  0  0  0  0  0  0  0  0  0
   -3.5051    2.4322    1.4594 H   0  0  0  0  0  0  0  0  0  0  0  0
   -1.7557    2.3771    1.1922 H   0  0  0  0  0  0  0  0  0  0  0  0
   -2.6086    3.9221    1.1268 H   0  0  0  0  0  0  0  0  0  0  0  0
   -2.2024   -2.2025    0.6395 H   0  0  0  0  0  0  0  0  0  0  0  0
   -1.7711   -1.3969    2.1812 H   0  0  0  0  0  0  0  0  0  0  0  0
   -4.3441   -0.9316    0.5877 H   0  0  0  0  0  0  0  0  0  0  0  0
   -4.2304   -1.9347    2.0444 H   0  0  0  0  0  0  0  0  0  0  0  0
   -3.9467   -0.1870    2.1462 H   0  0  0  0  0  0  0  0  0  0  0  0
  1  2  1  0  0  0  0
  2  3  1  0  0  0  0
  3  4  2  0  0  0  0
  4  5  2  0  0  0  0
  4  6  2  0  0  0  0
  6  7  1  0  0  0  0
  7  8  1  0  0  0  0
  4  9  1  0  0  0  0
  9 10  1  0  0  0  0
 10 11  1  0  0  0  0
 11 12  1  0  0  0  0
 12 13  2  0  0  0  0
 12 14  2  0  0  0  0
 14 15  1  0  0  0  0
 15 16  1  0  0  0  0
 12 17  1  0  0  0  0
 17 18  1  0  0  0  0
 18 19  1  0  0  0  0
  1 20  1  0  0  0  0
  1 21  1  0  0  0  0
  1 22  1  0  0  0  0
  2 23  1  0  0  0  0
  2 24  1  0  0  0  0
  7 25  1  0  0  0  0
  7 26  1  0  0  0  0
  8 27  1  0  0  0  0
  8 28  1  0  0  0  0
  8 29  1  0  0  0  0
 10 30  1  0  0  0  0
 10 31  1  0  0  0  0
 15 32  1  0  0  0  0
 15 33  1  0  0  0  0
 16 34  1  0  0  0  0
 16 35  1  0  0  0  0
 16 36  1  0  0  0  0
 18 37  1  0  0  0  0
 18 38  1  0  0  0  0
 19 39  1  0  0  0  0
 19 40  1  0  0  0  0
 19 41  1  0  0  0  0
M  END
