15
 xtb: 6.7.1 (edcfbbe)
C           -0.66912125082047       -2.18784996180690       -0.00000296072712
C            0.20411905007665       -0.97104422193421       -0.00000454034479
C            1.59951906479112       -1.08248003261563       -0.00000457009833
C            2.42607855448534        0.03650560066665       -0.00000067848691
C            1.86933966685890        1.31197470411963        0.00000070971484
C            0.48577991697183        1.46268447793583        0.00000077390023
C           -0.31510989428644        0.32757985344801       -0.00000005819102
Cl          -2.06803327857728        0.55062209513450        0.00000822475277
H           -1.32027450409613       -2.20945241445608        0.88049558777432
H           -1.32038904974095       -2.20937690667083       -0.88041750939911
H           -0.05794490135029       -3.09272356217713       -0.00007912981583
H            2.03594289921116       -2.07715349519465       -0.00000750141703
H            3.50390731413511       -0.08905617533393        0.00000042278405
H            2.50270723952800        2.19302237316460        0.00000168468801
H            0.03581523890072        2.44916871481871        0.00000180628836
