 xtb: 6.7.1 (edcfbbe)
          04092513573D

 41 40  0     0  0            999 V2000
    4.4227   -1.0151   -2.3406 C   0  0  0  0  0  0  0  0  0  0  0  0
    4.5435   -1.4204   -0.8856 C   0  0  0  0  0  0  0  0  0  0  0  0
    3.2613   -1.5739   -0.2517 O   0  0  0  0  0  0  0  0  0  0  0  0
    2.3238   -0.3463    0.1222 P   0  0  0  0  0  0  0  0  0  0  0  0
    3.2575    1.2826    0.6944 S   0  0  0  0  0  0  0  0  0  0  0  0
    1.3436   -0.9954    1.1862 O   0  0  0  0  0  0  0  0  0  0  0  0
    1.6071   -0.9338    2.6053 C   0  0  0  0  0  0  0  0  0  0  0  0
    2.7741   -1.8126    3.0045 C   0  0  0  0  0  0  0  0  0  0  0  0
    1.0038   -0.1820   -1.5222 S   0  0  0  0  0  0  0  0  0  0  0  0
    0.3524    1.4641   -1.1206 C   0  0  0  0  0  0  0  0  0  0  0  0
   -0.7246    1.4821    0.3316 S   0  0  0  0  0  0  0  0  0  0  0  0
   -2.3373    0.3620   -0.5212 P   0  0  0  0  0  0  0  0  0  0  0  0
   -2.6487    0.6619   -2.4255 S   0  0  0  0  0  0  0  0  0  0  0  0
   -3.5450    0.7139    0.4487 O   0  0  0  0  0  0  0  0  0  0  0  0
   -4.2039    1.9979    0.4066 C   0  0  0  0  0  0  0  0  0  0  0  0
   -5.5236    1.8676    1.1409 C   0  0  0  0  0  0  0  0  0  0  0  0
   -2.0575   -1.1492   -0.1832 O   0  0  0  0  0  0  0  0  0  0  0  0
   -1.9051   -1.6372    1.1730 C   0  0  0  0  0  0  0  0  0  0  0  0
   -3.1758   -2.3166    1.6391 C   0  0  0  0  0  0  0  0  0  0  0  0
    5.4076   -1.0268   -2.7973 H   0  0  0  0  0  0  0  0  0  0  0  0
    3.7704   -1.7023   -2.8735 H   0  0  0  0  0  0  0  0  0  0  0  0
    4.0095   -0.0103   -2.4178 H   0  0  0  0  0  0  0  0  0  0  0  0
    5.1195   -0.6754   -0.3270 H   0  0  0  0  0  0  0  0  0  0  0  0
    5.0059   -2.4030   -0.7812 H   0  0  0  0  0  0  0  0  0  0  0  0
    1.7960    0.1101    2.8758 H   0  0  0  0  0  0  0  0  0  0  0  0
    0.6754   -1.2714    3.0609 H   0  0  0  0  0  0  0  0  0  0  0  0
    3.6974   -1.4243    2.5767 H   0  0  0  0  0  0  0  0  0  0  0  0
    2.8630   -1.8187    4.0865 H   0  0  0  0  0  0  0  0  0  0  0  0
    2.6213   -2.8278    2.6479 H   0  0  0  0  0  0  0  0  0  0  0  0
   -0.2145    1.7891   -1.9932 H   0  0  0  0  0  0  0  0  0  0  0  0
    1.1775    2.1422   -0.9027 H   0  0  0  0  0  0  0  0  0  0  0  0
   -3.5505    2.7320    0.8854 H   0  0  0  0  0  0  0  0  0  0  0  0
   -4.3530    2.2783   -0.6410 H   0  0  0  0  0  0  0  0  0  0  0  0
   -6.0283    2.8282    1.1362 H   0  0  0  0  0  0  0  0  0  0  0  0
   -6.1542    1.1310    0.6510 H   0  0  0  0  0  0  0  0  0  0  0  0
   -5.3507    1.5591    2.1679 H   0  0  0  0  0  0  0  0  0  0  0  0
   -1.0684   -2.3368    1.1211 H   0  0  0  0  0  0  0  0  0  0  0  0
   -1.6435   -0.7964    1.8221 H   0  0  0  0  0  0  0  0  0  0  0  0
   -3.9938   -1.6018    1.6707 H   0  0  0  0  0  0  0  0  0  0  0  0
   -3.4387   -3.1209    0.9577 H   0  0  0  0  0  0  0  0  0  0  0  0
   -3.0163   -2.7250    2.6323 H   0  0  0  0  0  0  0  0  0  0  0  0
  1  2  1  0  0  0  0
  2  3  1  0  0  0  0
  3  4  2  0  0  0  0
  4  5  2  0  0  0  0
  4  6  2  0  0  0  0
  6  7  1  0  0  0  0
  7  8  1  0  0  0  0
  4  9  1  0  0  0  0
  9 10  1  0  0  0  0
 10 11  1  0  0  0  0
 11 12  1  0  0  0  0
 12 13  2  0  0  0  0
 12 14  2  0  0  0  0
 14 15  1  0  0  0  0
 15 16  1  0  0  0  0
 12 17  2  0  0  0  0
 17 18  1  0  0  0  0
 18 19  1  0  0  0  0
  1 20  1  0  0  0  0
  1 21  1  0  0  0  0
  1 22  1  0  0  0  0
  2 23  1  0  0  0  0
  2 24  1  0  0  0  0
  7 25  1  0  0  0  0
  7 26  1  0  0  0  0
  8 27  1  0  0  0  0
  8 28  1  0  0  0  0
  8 29  1  0  0  0  0
 10 30  1  0  0  0  0
 10 31  1  0  0  0  0
 15 32  1  0  0  0  0
 15 33  1  0  0  0  0
 16 34  1  0  0  0  0
 16 35  1  0  0  0  0
 16 36  1  0  0  0  0
 18 37  1  0  0  0  0
 18 38  1  0  0  0  0
 19 39  1  0  0  0  0
 19 40  1  0  0  0  0
 19 41  1  0  0  0  0
M  END
