 xtb: 6.7.1 (edcfbbe)
          04092507313D

 38 37  0     0  0            999 V2000
    1.9909   -3.5324   -2.3723 C   0  0  0  0  0  0  0  0  0  0  0  0
    3.2139   -2.9079   -1.7200 C   0  0  0  0  0  0  0  0  0  0  0  0
    2.9105   -1.5870   -1.2344 O   0  0  0  0  0  0  0  0  0  0  0  0
    2.3650   -1.4672   -0.0411 C   0  0  0  0  0  0  0  0  0  0  0  0
    2.1697   -2.3810    0.7274 O   0  0  0  0  0  0  0  0  0  0  0  0
    2.0075   -0.0214    0.2604 C   0  0  0  0  0  0  0  0  0  0  0  0
    1.1089    0.5340   -0.8479 C   0  0  0  0  0  0  0  0  0  0  0  0
    1.6808    0.6582   -1.7697 H   0  0  0  0  0  0  0  0  0  0  0  0
    0.4924    1.8509   -0.4235 C   0  0  0  0  0  0  0  0  0  0  0  0
   -0.7100    1.9787   -0.2772 O   0  0  0  0  0  0  0  0  0  0  0  0
    1.3785    2.7795   -0.2295 O   0  0  0  0  0  0  0  0  0  0  0  0
    0.9384    4.0543    0.2958 C   0  0  0  0  0  0  0  0  0  0  0  0
    0.8564    4.0014    1.8123 C   0  0  0  0  0  0  0  0  0  0  0  0
   -0.2574   -0.6040   -1.2730 S   0  0  0  0  0  0  0  0  0  0  0  0
   -1.5979   -0.2468    0.3185 P   0  0  0  0  0  0  0  0  0  0  0  0
   -1.1045    0.3441    2.1343 S   0  0  0  0  0  0  0  0  0  0  0  0
   -2.9667    0.3629   -0.2376 O   0  0  0  0  0  0  0  0  0  0  0  0
   -3.4484    1.6892   -0.0219 C   0  0  0  0  0  0  0  0  0  0  0  0
   -2.0182   -1.7995    0.3124 O   0  0  0  0  0  0  0  0  0  0  0  0
   -2.9968   -2.3122    1.2187 C   0  0  0  0  0  0  0  0  0  0  0  0
    2.2561   -4.4999   -2.7852 H   0  0  0  0  0  0  0  0  0  0  0  0
    1.2012   -3.6644   -1.6356 H   0  0  0  0  0  0  0  0  0  0  0  0
    1.6182   -2.8887   -3.1642 H   0  0  0  0  0  0  0  0  0  0  0  0
    4.0168   -2.7552   -2.4410 H   0  0  0  0  0  0  0  0  0  0  0  0
    3.5613   -3.5187   -0.8819 H   0  0  0  0  0  0  0  0  0  0  0  0
    2.9188    0.5756    0.3135 H   0  0  0  0  0  0  0  0  0  0  0  0
    1.5003    0.0033    1.2273 H   0  0  0  0  0  0  0  0  0  0  0  0
    1.6981    4.7590   -0.0407 H   0  0  0  0  0  0  0  0  0  0  0  0
   -0.0338    4.2961   -0.1399 H   0  0  0  0  0  0  0  0  0  0  0  0
    1.8277    3.7621    2.2355 H   0  0  0  0  0  0  0  0  0  0  0  0
    0.5302    4.9651    2.1884 H   0  0  0  0  0  0  0  0  0  0  0  0
    0.1436    3.2411    2.1282 H   0  0  0  0  0  0  0  0  0  0  0  0
   -3.1218    2.3312   -0.8370 H   0  0  0  0  0  0  0  0  0  0  0  0
   -3.0716    2.0757    0.9260 H   0  0  0  0  0  0  0  0  0  0  0  0
   -4.5332    1.6108    0.0005 H   0  0  0  0  0  0  0  0  0  0  0  0
   -3.9934   -1.9981    0.9098 H   0  0  0  0  0  0  0  0  0  0  0  0
   -2.7930   -1.9574    2.2316 H   0  0  0  0  0  0  0  0  0  0  0  0
   -2.9031   -3.3942    1.1727 H   0  0  0  0  0  0  0  0  0  0  0  0
  1  2  1  0  0  0  0
  2  3  1  0  0  0  0
  3  4  1  0  0  0  0
  4  5  2  0  0  0  0
  4  6  1  0  0  0  0
  6  7  1  0  0  0  0
  7  8  1  0  0  0  0
  7  9  1  0  0  0  0
  9 10  2  0  0  0  0
  9 11  4  0  0  0  0
 11 12  1  0  0  0  0
 12 13  1  0  0  0  0
  7 14  1  0  0  0  0
 14 15  1  0  0  0  0
 15 16  2  0  0  0  0
 15 17  2  0  0  0  0
 17 18  1  0  0  0  0
 15 19  1  0  0  0  0
 19 20  1  0  0  0  0
  1 21  1  0  0  0  0
  1 22  1  0  0  0  0
  1 23  1  0  0  0  0
  2 24  1  0  0  0  0
  2 25  1  0  0  0  0
  6 26  1  0  0  0  0
  6 27  1  0  0  0  0
 12 28  1  0  0  0  0
 12 29  1  0  0  0  0
 13 30  1  0  0  0  0
 13 31  1  0  0  0  0
 13 32  1  0  0  0  0
 18 33  1  0  0  0  0
 18 34  1  0  0  0  0
 18 35  1  0  0  0  0
 20 36  1  0  0  0  0
 20 37  1  0  0  0  0
 20 38  1  0  0  0  0
M  END
