38
 xtb: 6.7.1 (edcfbbe)
C            5.09733315764512       -2.57907268378297       -1.05610517871488
C            3.77190664217002       -3.09783095962837       -1.56103743636821
O            2.91973618431567       -1.99126905386879       -2.01168193959424
C            2.23275001276602       -1.33386854102532       -1.06987883336412
O            2.22616361399150       -1.62654794742995        0.11349183985936
C            1.48891343599800       -0.16152099947948       -1.65606917578167
C            0.41547827754600        0.39477505584380       -0.72283955656844
H            0.03354020453917        1.32529794930667       -1.15980001747292
C            0.93556511773961        0.75280717581961        0.66611984730692
O            0.39572324519900        0.47333708897848        1.71678260760156
O            2.04194326733737        1.49578530902644        0.54954008127739
C            2.61634595787957        2.02295278684497        1.79305562998458
C            1.89021570819693        3.27390396545346        2.22790926549634
S           -0.99294979131747       -0.79172269165921       -0.65892525975711
P           -2.54633795212103        0.40216940747917        0.15803770662228
S           -2.42532144792464        2.31126432239830       -0.17645527737653
O           -3.83580439291707       -0.38594197475563       -0.40896040028271
C           -4.22577694569603       -0.23644003866053       -1.80272195606030
O           -2.68469611870869        0.08929464462048        1.72481096035378
C           -2.63096484220115       -1.27637839937864        2.23524061061274
H            4.96863097781985       -1.94967884911117       -0.17139499190901
H            5.73040958560711       -3.42943375216419       -0.78393539644870
H            5.61017763873912       -2.00396075616260       -1.83228996732788
H            3.23088460917651       -3.66622196412763       -0.80076074815008
H            3.89238354023313       -3.71227689609169       -2.45464365837856
H            1.06046228282966       -0.43239760618561       -2.62446364989171
H            2.22957377858372        0.62234810292104       -1.85355293067495
H            2.58272370712411        1.23618660594909        2.55047019028884
H            3.65502153203216        2.22959302905908        1.53043464084433
H            2.37775947410890        3.67286235988536        3.12300298527532
H            1.93063923677653        4.03734675440805        1.44579937775066
H            0.84471818863259        3.06596078840865        2.47036289366536
H           -4.52782407567458        0.79621928340933       -1.99501209719482
H           -5.07101664092626       -0.90985464150793       -1.94402148778836
H           -3.40400176002618       -0.52339808766170       -2.46492770315160
H           -1.62053883863945       -1.67523287081606        2.11775655385026
H           -3.35871118694603       -1.90913909422567        1.72155144285858
H           -2.88321358952952       -1.19871501863103        3.29274006042359
