10
 xtb: 6.7.1 (edcfbbe)
C            1.83504637864325        0.00237674796772       -0.27227207113318
C            0.69457663067451        0.28860790759612        0.35209120835301
C           -0.54711503331809       -0.53509824667966        0.23219730044777
O           -1.65991493383561        0.24947794985259       -0.24944645586435
H            2.71873136121498        0.62383839364229       -0.15621433862144
H            1.92087795529813       -0.87127049859659       -0.91609784079621
H            0.61949939975915        1.17017611509640        0.98895627992704
H           -0.85818930827977       -0.90263019521547        1.21630692861047
H           -0.37165335468621       -1.40175463538991       -0.41983807203351
H           -1.40948006982420        0.58773114536954       -1.11962931713008
