41
 xtb: 6.7.1 (edcfbbe)
C            4.96780477944129       -2.32521965461701       -1.88354078060546
C            4.31442244985873       -1.01488570037061       -1.52956411372979
O            3.23974388384301       -1.31229869833631       -0.57121115242479
P            2.27061884219782       -0.13838068055139       -0.03692992665744
S            3.11229333718157        1.53287663746956        0.49939999559677
O            1.43576642279182       -0.93569153008986        1.07673570488552
C            1.78610500608895       -0.89083908168787        2.50402793348754
C            2.98931077741588       -1.74796790995433        2.80875362234601
S            0.87938467307322       -0.02839154105031       -1.62938144901013
C            0.09616438417885        1.60059082950102       -1.31156837881285
S           -0.82552184865561        1.81599194087386        0.26198714277561
P           -2.40138780462767        0.42411226206267        0.01778079316729
S           -3.11949384322693        0.21756190129770       -1.78159766591992
O           -3.43654990445790        0.89026170108173        1.16272779781733
C           -4.60714228490661        1.73662005953118        0.89013853440616
C           -4.23629504196257        3.19284331947071        0.76093265545992
O           -1.75220637097487       -0.87115414330433        0.70677811558058
C           -2.43856881113045       -2.17541486576298        0.66566555354044
C           -1.55553314764802       -3.15994380414052       -0.05674891137680
H            5.38204382351613       -2.80698839066823       -0.99327788202682
H            4.25512781409877       -3.00411763289954       -2.36005270911263
H            5.78573361299276       -2.13430914490288       -2.58489574075591
H            3.87540244795487       -0.53042121240676       -2.40833281590348
H            5.01471700759661       -0.32510778581142       -1.04949244802535
H            1.94083871975308        0.15474266422744        2.78766802032109
H            0.88583235471365       -1.26400063874115        2.99677386816634
H            3.14215204318759       -1.76470171747230        3.89288854718525
H            2.83442899784020       -2.77510936607498        2.46609162125737
H            3.89579416440820       -1.34907194482480        2.34352776429392
H           -0.57997674645506        1.76336789162690       -2.15601867204646
H            0.86369651680617        2.37997015169685       -1.30084358374955
H           -5.10150990374230        1.35729178049324       -0.00901844167215
H           -5.25274526775717        1.56146759523841        1.75307421346652
H           -3.68579876141190        3.53783326209463        1.64109217467802
H           -3.63435090507925        3.37874840131666       -0.13287431541265
H           -5.15750553817402        3.77904544040687        0.67971984042529
H           -2.59749308983843       -2.45334343358426        1.71064871884607
H           -3.41113011315274       -2.06566545357522        0.17606810779448
H           -1.42063909212102       -2.86954335021101       -1.10255198350620
H           -0.57469733516498       -3.22629291281435        0.42369010102954
H           -2.02299839516526       -4.14951395719007       -0.02764736069710
