41
 xtb: 6.7.1 (edcfbbe)
C            4.32978227985229       -1.10802272912351       -2.74087804223052
C            4.47963005794010       -1.59315159057331       -1.32068718263519
O            3.17975810232971       -1.74847736749100       -0.65133677987445
P            2.34720351763396       -0.51023477991987       -0.04453683743016
S            3.37749143742116        1.02594833070769        0.56941080676852
O            1.42899383744380       -1.25679987258568        1.03716074848129
C            1.95821117330713       -1.60223677463200        2.36955146892845
C            1.32347043440154       -0.71039036291108        3.40582132900459
S            0.93643616692875       -0.14907945363996       -1.58174205749747
C            0.24555481392769        1.46422414485330       -1.04021422758224
S           -0.83985145045029        1.46676041140304        0.43897328371641
P           -2.57688046222206        0.51087622751887       -0.33583299345284
S           -3.13018886599752        1.07694851651329       -2.11116098374170
O           -3.58625747875361        0.72054695324991        0.89709950470298
C           -4.58554032107837        1.79881486974838        0.95480070382925
C           -3.98034960234636        3.11096198965906        1.38513645353652
O           -2.31665155495458       -1.07168994718765       -0.28933042325081
C           -1.98062147001688       -1.75998649119430        0.96929445534316
C           -1.39935639571858       -3.10148426369045        0.60705024005575
H            3.95141869818008       -0.08269764676093       -2.77918226040553
H            5.31446045746569       -1.12580094846519       -3.21950085142686
H            3.65923413519860       -1.75904781961555       -3.30932441851480
H            5.09624277607162       -0.91860223990075       -0.71952645718606
H            4.90637246866581       -2.59734453247340       -1.28153189245333
H            1.68806563185966       -2.65174638908297        2.51063188376459
H            3.04916454382716       -1.51539183305756        2.36591250675869
H            1.59695051692553        0.33572873616455        3.24286150585235
H            0.23362447546755       -0.80228719968294        3.38222234363633
H            1.67404437581758       -1.01174619952443        4.39834199748236
H           -0.31190750637958        1.84902615311965       -1.89976596254986
H            1.06631765486322        2.14910656740998       -0.80646308950091
H           -5.06742334855497        1.86984059637288       -0.02466605018769
H           -5.31085239386077        1.43190292885278        1.68348516983889
H           -3.44683796476099        3.00492685349127        2.33416088102561
H           -3.29563753588860        3.50778284480888        0.63061369566665
H           -4.79013895579463        3.83477203407348        1.52437408412390
H           -1.26407100597897       -1.14689105540492        1.52486146828658
H           -2.90204413534328       -1.85603626673952        1.55055702061229
H           -2.12890576835019       -3.71255869654185        0.06803512095513
H           -0.50378441881966       -2.98647824013453       -0.00948021510651
H           -1.12153684503977       -3.62513876053068        1.52724712574349
