 xtb: 6.7.1 (edcfbbe)
          04092509473D

 38 37  0     0  0            999 V2000
    5.3218   -2.2804   -0.5652 C   0  0  0  0  0  0  0  0  0  0  0  0
    4.6153   -1.1667    0.1917 C   0  0  0  0  0  0  0  0  0  0  0  0
    3.1853   -1.3428    0.1573 O   0  0  0  0  0  0  0  0  0  0  0  0
    2.5219   -0.8800   -0.8804 C   0  0  0  0  0  0  0  0  0  0  0  0
    3.0200   -0.2876   -1.8127 O   0  0  0  0  0  0  0  0  0  0  0  0
    1.0393   -1.1977   -0.7766 C   0  0  0  0  0  0  0  0  0  0  0  0
    0.2301   -0.0259   -1.3172 C   0  0  0  0  0  0  0  0  0  0  0  0
    0.6242    0.2499   -2.3033 H   0  0  0  0  0  0  0  0  0  0  0  0
    0.3199    1.2161   -0.4496 C   0  0  0  0  0  0  0  0  0  0  0  0
   -0.5472    2.0653   -0.4081 O   0  0  0  0  0  0  0  0  0  0  0  0
    1.4588    1.2749    0.1914 O   0  0  0  0  0  0  0  0  0  0  0  0
    1.7231    2.4271    1.0202 C   0  0  0  0  0  0  0  0  0  0  0  0
    3.1029    2.2531    1.6225 C   0  0  0  0  0  0  0  0  0  0  0  0
   -1.5216   -0.4375   -1.6342 S   0  0  0  0  0  0  0  0  0  0  0  0
   -2.3838   -0.0771    0.2392 P   0  0  0  0  0  0  0  0  0  0  0  0
   -1.2538   -0.1724    1.8470 S   0  0  0  0  0  0  0  0  0  0  0  0
   -3.2128    1.2554    0.0128 O   0  0  0  0  0  0  0  0  0  0  0  0
   -3.9620    1.8532    1.0838 C   0  0  0  0  0  0  0  0  0  0  0  0
   -3.5957   -1.1264    0.2749 O   0  0  0  0  0  0  0  0  0  0  0  0
   -3.4043   -2.5193    0.5500 C   0  0  0  0  0  0  0  0  0  0  0  0
    5.0555   -2.2433   -1.6190 H   0  0  0  0  0  0  0  0  0  0  0  0
    6.3952   -2.1545   -0.4692 H   0  0  0  0  0  0  0  0  0  0  0  0
    5.0367   -3.2476   -0.1607 H   0  0  0  0  0  0  0  0  0  0  0  0
    4.8570   -0.1919   -0.2409 H   0  0  0  0  0  0  0  0  0  0  0  0
    4.8672   -1.1858    1.2520 H   0  0  0  0  0  0  0  0  0  0  0  0
    0.7915   -1.4178    0.2621 H   0  0  0  0  0  0  0  0  0  0  0  0
    0.8399   -2.0778   -1.3908 H   0  0  0  0  0  0  0  0  0  0  0  0
    1.6567    3.3214    0.3933 H   0  0  0  0  0  0  0  0  0  0  0  0
    0.9447    2.4781    1.7880 H   0  0  0  0  0  0  0  0  0  0  0  0
    3.8472    2.1915    0.8336 H   0  0  0  0  0  0  0  0  0  0  0  0
    3.3259    3.1021    2.2598 H   0  0  0  0  0  0  0  0  0  0  0  0
    3.1354    1.3416    2.2120 H   0  0  0  0  0  0  0  0  0  0  0  0
   -4.8194    1.2279    1.3316 H   0  0  0  0  0  0  0  0  0  0  0  0
   -4.2832    2.8202    0.7056 H   0  0  0  0  0  0  0  0  0  0  0  0
   -3.3269    1.9795    1.9625 H   0  0  0  0  0  0  0  0  0  0  0  0
   -2.8843   -2.9961   -0.2801 H   0  0  0  0  0  0  0  0  0  0  0  0
   -4.4036   -2.9336    0.6608 H   0  0  0  0  0  0  0  0  0  0  0  0
   -2.8339   -2.6435    1.4716 H   0  0  0  0  0  0  0  0  0  0  0  0
  1  2  1  0  0  0  0
  2  3  1  0  0  0  0
  3  4  1  0  0  0  0
  4  5  2  0  0  0  0
  4  6  1  0  0  0  0
  6  7  1  0  0  0  0
  7  8  1  0  0  0  0
  7  9  1  0  0  0  0
  9 10  2  0  0  0  0
  9 11  4  0  0  0  0
 11 12  1  0  0  0  0
 12 13  1  0  0  0  0
  7 14  1  0  0  0  0
 14 15  1  0  0  0  0
 15 16  2  0  0  0  0
 15 17  2  0  0  0  0
 17 18  1  0  0  0  0
 15 19  1  0  0  0  0
 19 20  1  0  0  0  0
  1 21  1  0  0  0  0
  1 22  1  0  0  0  0
  1 23  1  0  0  0  0
  2 24  1  0  0  0  0
  2 25  1  0  0  0  0
  6 26  1  0  0  0  0
  6 27  1  0  0  0  0
 12 28  1  0  0  0  0
 12 29  1  0  0  0  0
 13 30  1  0  0  0  0
 13 31  1  0  0  0  0
 13 32  1  0  0  0  0
 18 33  1  0  0  0  0
 18 34  1  0  0  0  0
 18 35  1  0  0  0  0
 20 36  1  0  0  0  0
 20 37  1  0  0  0  0
 20 38  1  0  0  0  0
M  END
