 xtb: 6.7.1 (edcfbbe)
          04092507313D

 38 37  0     0  0            999 V2000
    3.3675   -3.3670    0.2257 C   0  0  0  0  0  0  0  0  0  0  0  0
    2.9294   -2.0279    0.7957 C   0  0  0  0  0  0  0  0  0  0  0  0
    2.7529   -1.0527   -0.2505 O   0  0  0  0  0  0  0  0  0  0  0  0
    1.6249   -1.0396   -0.9274 C   0  0  0  0  0  0  0  0  0  0  0  0
    0.6851   -1.7836   -0.7216 O   0  0  0  0  0  0  0  0  0  0  0  0
    1.6194    0.0414   -1.9875 C   0  0  0  0  0  0  0  0  0  0  0  0
    0.4393    0.9927   -1.7726 C   0  0  0  0  0  0  0  0  0  0  0  0
    0.4138    1.7302   -2.5796 H   0  0  0  0  0  0  0  0  0  0  0  0
    0.5138    1.7222   -0.4453 C   0  0  0  0  0  0  0  0  0  0  0  0
   -0.4479    1.7992    0.2993 O   0  0  0  0  0  0  0  0  0  0  0  0
    1.6926    2.2145   -0.2034 O   0  0  0  0  0  0  0  0  0  0  0  0
    1.9069    2.9145    1.0437 C   0  0  0  0  0  0  0  0  0  0  0  0
    1.4583    4.3619    0.9375 C   0  0  0  0  0  0  0  0  0  0  0  0
   -1.1851    0.1580   -1.8460 S   0  0  0  0  0  0  0  0  0  0  0  0
   -1.5600   -0.3985    0.1650 P   0  0  0  0  0  0  0  0  0  0  0  0
   -0.4442   -0.6488    1.7778 S   0  0  0  0  0  0  0  0  0  0  0  0
   -2.9121    0.3891    0.5331 O   0  0  0  0  0  0  0  0  0  0  0  0
   -3.0221    1.4849    1.4372 C   0  0  0  0  0  0  0  0  0  0  0  0
   -2.2244   -1.7725   -0.3208 O   0  0  0  0  0  0  0  0  0  0  0  0
   -2.7867   -2.7105    0.5973 C   0  0  0  0  0  0  0  0  0  0  0  0
    3.5610   -4.0550    1.0419 H   0  0  0  0  0  0  0  0  0  0  0  0
    2.5825   -3.7804   -0.4039 H   0  0  0  0  0  0  0  0  0  0  0  0
    4.2712   -3.2444   -0.3650 H   0  0  0  0  0  0  0  0  0  0  0  0
    3.6974   -1.5955    1.4367 H   0  0  0  0  0  0  0  0  0  0  0  0
    1.9901   -2.1223    1.3489 H   0  0  0  0  0  0  0  0  0  0  0  0
    1.5036   -0.4353   -2.9614 H   0  0  0  0  0  0  0  0  0  0  0  0
    2.5572    0.5939   -1.9400 H   0  0  0  0  0  0  0  0  0  0  0  0
    1.3650    2.3883    1.8347 H   0  0  0  0  0  0  0  0  0  0  0  0
    2.9818    2.8389    1.2049 H   0  0  0  0  0  0  0  0  0  0  0  0
    1.9709    4.8535    0.1156 H   0  0  0  0  0  0  0  0  0  0  0  0
    0.3849    4.4130    0.7705 H   0  0  0  0  0  0  0  0  0  0  0  0
    1.6929    4.8747    1.8642 H   0  0  0  0  0  0  0  0  0  0  0  0
   -2.8587    2.4184    0.9022 H   0  0  0  0  0  0  0  0  0  0  0  0
   -2.2856    1.3860    2.2365 H   0  0  0  0  0  0  0  0  0  0  0  0
   -4.0317    1.4390    1.8392 H   0  0  0  0  0  0  0  0  0  0  0  0
   -2.1144   -2.8561    1.4460 H   0  0  0  0  0  0  0  0  0  0  0  0
   -2.8978   -3.6372    0.0400 H   0  0  0  0  0  0  0  0  0  0  0  0
   -3.7541   -2.3522    0.9500 H   0  0  0  0  0  0  0  0  0  0  0  0
  1  2  1  0  0  0  0
  2  3  1  0  0  0  0
  3  4  4  0  0  0  0
  4  5  2  0  0  0  0
  4  6  1  0  0  0  0
  6  7  1  0  0  0  0
  7  8  1  0  0  0  0
  7  9  1  0  0  0  0
  9 10  2  0  0  0  0
  9 11  4  0  0  0  0
 11 12  1  0  0  0  0
 12 13  1  0  0  0  0
  7 14  1  0  0  0  0
 14 15  1  0  0  0  0
 15 16  2  0  0  0  0
 15 17  1  0  0  0  0
 17 18  1  0  0  0  0
 15 19  1  0  0  0  0
 19 20  1  0  0  0  0
  1 21  1  0  0  0  0
  1 22  1  0  0  0  0
  1 23  1  0  0  0  0
  2 24  1  0  0  0  0
  2 25  1  0  0  0  0
  6 26  1  0  0  0  0
  6 27  1  0  0  0  0
 12 28  1  0  0  0  0
 12 29  1  0  0  0  0
 13 30  1  0  0  0  0
 13 31  1  0  0  0  0
 13 32  1  0  0  0  0
 18 33  1  0  0  0  0
 18 34  1  0  0  0  0
 18 35  1  0  0  0  0
 20 36  1  0  0  0  0
 20 37  1  0  0  0  0
 20 38  1  0  0  0  0
M  END
