 xtb: 6.7.1 (edcfbbe)
          04092505203D

 41 40  0     0  0            999 V2000
    5.3143   -1.5733   -1.3833 C   0  0  0  0  0  0  0  0  0  0  0  0
    3.8967   -1.5710   -1.9221 C   0  0  0  0  0  0  0  0  0  0  0  0
    2.9451   -1.7158   -0.8475 O   0  0  0  0  0  0  0  0  0  0  0  0
    2.2049   -0.4698   -0.1924 P   0  0  0  0  0  0  0  0  0  0  0  0
    3.3507    1.0430    0.3135 S   0  0  0  0  0  0  0  0  0  0  0  0
    1.4073   -1.1792    0.9725 O   0  0  0  0  0  0  0  0  0  0  0  0
    1.9516   -1.3096    2.3096 C   0  0  0  0  0  0  0  0  0  0  0  0
    1.4258   -0.2135    3.2145 C   0  0  0  0  0  0  0  0  0  0  0  0
    0.6707   -0.0402   -1.5803 S   0  0  0  0  0  0  0  0  0  0  0  0
    0.1650    1.5314   -0.8283 C   0  0  0  0  0  0  0  0  0  0  0  0
   -0.7580    1.3056    0.7077 S   0  0  0  0  0  0  0  0  0  0  0  0
   -2.4838    0.4374   -0.1999 P   0  0  0  0  0  0  0  0  0  0  0  0
   -3.0162    1.2014   -1.9178 S   0  0  0  0  0  0  0  0  0  0  0  0
   -3.5736    0.4727    0.9583 O   0  0  0  0  0  0  0  0  0  0  0  0
   -4.4496    1.5957    1.1713 C   0  0  0  0  0  0  0  0  0  0  0  0
   -3.7006    2.8398    1.6019 C   0  0  0  0  0  0  0  0  0  0  0  0
   -2.1826   -1.1062   -0.3098 O   0  0  0  0  0  0  0  0  0  0  0  0
   -1.8986   -1.9458    0.8377 C   0  0  0  0  0  0  0  0  0  0  0  0
   -1.2388   -3.2104    0.3295 C   0  0  0  0  0  0  0  0  0  0  0  0
    5.4743   -0.7086   -0.7429 H   0  0  0  0  0  0  0  0  0  0  0  0
    5.4928   -2.4768   -0.8072 H   0  0  0  0  0  0  0  0  0  0  0  0
    6.0121   -1.5319   -2.2134 H   0  0  0  0  0  0  0  0  0  0  0  0
    3.7151   -2.4287   -2.5722 H   0  0  0  0  0  0  0  0  0  0  0  0
    3.6869   -0.6483   -2.4705 H   0  0  0  0  0  0  0  0  0  0  0  0
    1.6266   -2.2966    2.6415 H   0  0  0  0  0  0  0  0  0  0  0  0
    3.0428   -1.2788    2.2574 H   0  0  0  0  0  0  0  0  0  0  0  0
    1.7585    0.7593    2.8591 H   0  0  0  0  0  0  0  0  0  0  0  0
    0.3397   -0.2194    3.2319 H   0  0  0  0  0  0  0  0  0  0  0  0
    1.8029   -0.3714    4.2197 H   0  0  0  0  0  0  0  0  0  0  0  0
   -0.4669    2.0373   -1.5585 H   0  0  0  0  0  0  0  0  0  0  0  0
    1.0508    2.1203   -0.5876 H   0  0  0  0  0  0  0  0  0  0  0  0
   -5.0019    1.7805    0.2452 H   0  0  0  0  0  0  0  0  0  0  0  0
   -5.1314    1.2461    1.9479 H   0  0  0  0  0  0  0  0  0  0  0  0
   -3.0622    2.6233    2.4548 H   0  0  0  0  0  0  0  0  0  0  0  0
   -3.0823    3.2048    0.7832 H   0  0  0  0  0  0  0  0  0  0  0  0
   -4.4149    3.6109    1.8719 H   0  0  0  0  0  0  0  0  0  0  0  0
   -1.2400   -1.3971    1.5170 H   0  0  0  0  0  0  0  0  0  0  0  0
   -2.8453   -2.1547    1.3393 H   0  0  0  0  0  0  0  0  0  0  0  0
   -1.8752   -3.6892   -0.4092 H   0  0  0  0  0  0  0  0  0  0  0  0
   -0.2831   -2.9747   -0.1329 H   0  0  0  0  0  0  0  0  0  0  0  0
   -1.0774   -3.8881    1.1616 H   0  0  0  0  0  0  0  0  0  0  0  0
  1  2  1  0  0  0  0
  2  3  1  0  0  0  0
  3  4  2  0  0  0  0
  4  5  2  0  0  0  0
  4  6  2  0  0  0  0
  6  7  1  0  0  0  0
  7  8  1  0  0  0  0
  4  9  1  0  0  0  0
  9 10  1  0  0  0  0
 10 11  1  0  0  0  0
 11 12  1  0  0  0  0
 12 13  2  0  0  0  0
 12 14  2  0  0  0  0
 14 15  1  0  0  0  0
 15 16  1  0  0  0  0
 12 17  2  0  0  0  0
 17 18  1  0  0  0  0
 18 19  1  0  0  0  0
  1 20  1  0  0  0  0
  1 21  1  0  0  0  0
  1 22  1  0  0  0  0
  2 23  1  0  0  0  0
  2 24  1  0  0  0  0
  7 25  1  0  0  0  0
  7 26  1  0  0  0  0
  8 27  1  0  0  0  0
  8 28  1  0  0  0  0
  8 29  1  0  0  0  0
 10 30  1  0  0  0  0
 10 31  1  0  0  0  0
 15 32  1  0  0  0  0
 15 33  1  0  0  0  0
 16 34  1  0  0  0  0
 16 35  1  0  0  0  0
 16 36  1  0  0  0  0
 18 37  1  0  0  0  0
 18 38  1  0  0  0  0
 19 39  1  0  0  0  0
 19 40  1  0  0  0  0
 19 41  1  0  0  0  0
M  END
