 xtb: 6.7.1 (edcfbbe)
          04092505213D

 41 40  0     0  0            999 V2000
    5.4304   -2.0932   -0.4783 C   0  0  0  0  0  0  0  0  0  0  0  0
    4.3019   -1.2448   -1.0282 C   0  0  0  0  0  0  0  0  0  0  0  0
    3.4294   -0.9065    0.0706 O   0  0  0  0  0  0  0  0  0  0  0  0
    2.3350    0.2339   -0.0750 P   0  0  0  0  0  0  0  0  0  0  0  0
    2.9837    1.9728   -0.6855 S   0  0  0  0  0  0  0  0  0  0  0  0
    1.7020    0.2947    1.3631 O   0  0  0  0  0  0  0  0  0  0  0  0
    1.2832   -0.8861    2.0921 C   0  0  0  0  0  0  0  0  0  0  0  0
    2.3405   -1.2906    3.0980 C   0  0  0  0  0  0  0  0  0  0  0  0
    0.8850   -0.6948   -1.3496 S   0  0  0  0  0  0  0  0  0  0  0  0
    0.0722    0.8348   -1.8568 C   0  0  0  0  0  0  0  0  0  0  0  0
   -0.7989    1.6574   -0.4976 S   0  0  0  0  0  0  0  0  0  0  0  0
   -2.3582    0.2305   -0.3443 P   0  0  0  0  0  0  0  0  0  0  0  0
   -3.0332   -0.5435   -2.0028 S   0  0  0  0  0  0  0  0  0  0  0  0
   -3.4911    1.0001    0.4510 O   0  0  0  0  0  0  0  0  0  0  0  0
   -3.2455    1.6392    1.7286 C   0  0  0  0  0  0  0  0  0  0  0  0
   -4.5894    1.9078    2.3732 C   0  0  0  0  0  0  0  0  0  0  0  0
   -1.6900   -0.8011    0.6830 O   0  0  0  0  0  0  0  0  0  0  0  0
   -2.0911   -2.1865    0.7126 C   0  0  0  0  0  0  0  0  0  0  0  0
   -3.4751   -2.3463    1.3078 C   0  0  0  0  0  0  0  0  0  0  0  0
    6.0965   -2.3669   -1.2899 H   0  0  0  0  0  0  0  0  0  0  0  0
    5.9877   -1.5349    0.2686 H   0  0  0  0  0  0  0  0  0  0  0  0
    5.0310   -2.9945   -0.0226 H   0  0  0  0  0  0  0  0  0  0  0  0
    3.7164   -1.7897   -1.7736 H   0  0  0  0  0  0  0  0  0  0  0  0
    4.6750   -0.3170   -1.4736 H   0  0  0  0  0  0  0  0  0  0  0  0
    0.3536   -0.5902    2.5818 H   0  0  0  0  0  0  0  0  0  0  0  0
    1.0852   -1.6896    1.3772 H   0  0  0  0  0  0  0  0  0  0  0  0
    1.9776   -2.1336    3.6776 H   0  0  0  0  0  0  0  0  0  0  0  0
    3.2561   -1.5730    2.5855 H   0  0  0  0  0  0  0  0  0  0  0  0
    2.5545   -0.4603    3.7652 H   0  0  0  0  0  0  0  0  0  0  0  0
   -0.6395    0.5725   -2.6399 H   0  0  0  0  0  0  0  0  0  0  0  0
    0.8226    1.5406   -2.2138 H   0  0  0  0  0  0  0  0  0  0  0  0
   -2.6296    0.9755    2.3407 H   0  0  0  0  0  0  0  0  0  0  0  0
   -2.6959    2.5653    1.5408 H   0  0  0  0  0  0  0  0  0  0  0  0
   -5.1195    0.9747    2.5417 H   0  0  0  0  0  0  0  0  0  0  0  0
   -4.4350    2.4117    3.3219 H   0  0  0  0  0  0  0  0  0  0  0  0
   -5.1910    2.5380    1.7247 H   0  0  0  0  0  0  0  0  0  0  0  0
   -2.0607   -2.5784   -0.3087 H   0  0  0  0  0  0  0  0  0  0  0  0
   -1.3279   -2.6744    1.3201 H   0  0  0  0  0  0  0  0  0  0  0  0
   -3.7338   -3.3998    1.3409 H   0  0  0  0  0  0  0  0  0  0  0  0
   -3.5073   -1.9361    2.3139 H   0  0  0  0  0  0  0  0  0  0  0  0
   -4.2027   -1.8233    0.6871 H   0  0  0  0  0  0  0  0  0  0  0  0
  1  2  1  0  0  0  0
  2  3  1  0  0  0  0
  3  4  2  0  0  0  0
  4  5  2  0  0  0  0
  4  6  2  0  0  0  0
  6  7  1  0  0  0  0
  7  8  1  0  0  0  0
  4  9  1  0  0  0  0
  9 10  1  0  0  0  0
 10 11  1  0  0  0  0
 11 12  1  0  0  0  0
 12 13  2  0  0  0  0
 12 14  2  0  0  0  0
 14 15  1  0  0  0  0
 15 16  1  0  0  0  0
 12 17  1  0  0  0  0
 17 18  1  0  0  0  0
 18 19  1  0  0  0  0
  1 20  1  0  0  0  0
  1 21  1  0  0  0  0
  1 22  1  0  0  0  0
  2 23  1  0  0  0  0
  2 24  1  0  0  0  0
  7 25  1  0  0  0  0
  7 26  1  0  0  0  0
  8 27  1  0  0  0  0
  8 28  1  0  0  0  0
  8 29  1  0  0  0  0
 10 30  1  0  0  0  0
 10 31  1  0  0  0  0
 15 32  1  0  0  0  0
 15 33  1  0  0  0  0
 16 34  1  0  0  0  0
 16 35  1  0  0  0  0
 16 36  1  0  0  0  0
 18 37  1  0  0  0  0
 18 38  1  0  0  0  0
 19 39  1  0  0  0  0
 19 40  1  0  0  0  0
 19 41  1  0  0  0  0
M  END
