  17
 
 C          2.4882592095       -0.4341582034        0.4004944449
 O          1.2054436604        0.0737687055        0.7831300323
 P         -0.0068910482       -0.0270952340       -0.2450877100
 O          0.0324987125       -1.1376198679       -1.2033054744
 O         -1.2006720214       -0.0379504671        0.8107599216
 C         -2.4562092575       -0.6102013744        0.4299821814
 O         -0.0765389199        1.3754623569       -1.0026277011
 C         -0.1185123669        2.5884908522       -0.2380009660
 H          2.9422661284       -0.8351942281        1.3045601870
 H          3.0966632211        0.3744399696       -0.0051408459
 H          2.3709216979       -1.2178296549       -0.3484557813
 H         -2.8928517950       -1.0204573392        1.3383540323
 H         -2.2989222996       -1.3968888818       -0.3085307836
 H         -3.1029383549        0.1613303279        0.0112443445
 H          0.0743644127        3.3895527347       -0.9474544839
 H          0.6417594245        2.5689924344        0.5417767108
 H         -1.1005338648        2.7068422115        0.2179755160
          17
        -29.94120250
 C          0.9572398960        2.2651198752       -0.5488506626
 O          0.3701717017        0.9974688948       -0.8503161988
 P         -0.0430348933        0.0085623477        0.3483636356
 O         -0.4243575062        0.7010491441        1.5858961714
 O         -1.1489092844       -0.8982316778       -0.3439902686
 C         -2.4429991355       -0.3351153996       -0.5839519486
 O          1.1513385461       -1.0022894006        0.5582997435
 C          1.6397831804       -1.7823286980       -0.5453136538
 H          0.6451448947        2.5901558426        0.4438414072
 H          0.6030447063        2.9597405748       -1.3077310002
 H          2.0430237560        2.1829258687       -0.5842491536
 H         -2.4081660676        0.3015121854       -1.4671781580
 H         -2.7603966065        0.2485078006        0.2805050578
 H         -3.1114265779       -1.1779863082       -0.7436747911
 H          1.7295228230       -1.1608297587       -1.4350432030
 H          0.9553237061       -2.6056327012       -0.7395612337
 H          2.6125359073       -2.1547586576       -0.2331361386
