  23
 
 C         -0.2527149365        2.3740714736        0.1087044413
 N         -0.1009011647        0.9725450316       -0.2214414123
 C         -1.1988450278        0.3575032593       -0.9053339180
 C         -2.2386181820       -0.2418377584        0.0489169632
 F         -2.8458703377        0.6823970174        0.8151147564
 F         -3.2266246603       -0.8635457248       -0.6293159898
 F         -1.7378089747       -1.1538017359        0.8955223859
 C          1.1364536799        0.3559135797       -0.1456700200
 C          1.2627923941       -1.0353028162       -0.2263208559
 C          2.5019091322       -1.6399354667       -0.1414205084
 C          3.6491952536       -0.8856487458        0.0344253739
 C          3.5359692178        0.4909748319        0.1235017121
 C          2.3032867925        1.1074730873        0.0317903373
 H          0.3017870748        2.5980081852        1.0178110848
 H         -1.3027191078        2.5842195083        0.2991451190
 H          0.0984339816        3.0241240586       -0.6993571824
 H         -1.7349140288        1.0932571262       -1.5154624254
 H         -0.8585614556       -0.4532650358       -1.5548070468
 H          0.3929368778       -1.6647899011       -0.3275462933
 H          2.5670703269       -2.7163474600       -0.2034153586
 H          4.6138491250       -1.3637209773        0.1048040108
 H          4.4197048573        1.0971711387        0.2580327522
 H          2.2573827108        2.1819565429        0.0853641834
          23
        -41.49958220
 C         -0.4629803948        2.3478818375       -0.3618215251
 N         -0.1455136300        1.0124003537       -0.8282574757
 C         -1.2816658891        0.1851275718       -1.1173763024
 C         -1.9602204804       -0.3910492036        0.1332691163
 F         -1.1165787482       -1.0619127569        0.9354038807
 F         -2.5434278089        0.5431892402        0.9070293187
 F         -2.9397071897       -1.2607926705       -0.1925892308
 C          1.0382479795        0.4096656775       -0.3896495590
 C          1.8419899100        1.0040772811        0.5854835632
 C          3.0414484040        0.4292152028        0.9638670146
 C          3.4738847444       -0.7507804864        0.3870735052
 C          2.6871619629       -1.3483382112       -0.5834022436
 C          1.4902260261       -0.7797479194       -0.9697889809
 H         -1.2870426688        2.7336157898       -0.9587644229
 H          0.4018780382        2.9886300173       -0.5185009318
 H         -0.7528153710        2.3834389613        0.6941667133
 H         -2.0398290960        0.7681123452       -1.6467939423
 H         -1.0026961970       -0.6703807674       -1.7344082031
 H          1.5326434258        1.9142520648        1.0713238242
 H          3.6384175709        0.9093489411        1.7251987735
 H          4.4079671350       -1.1992024805        0.6878286955
 H          3.0102052940       -2.2669900406       -1.0501260573
 H          0.9180515531       -1.2677553531       -1.7427103685
