  23
 
 C         -4.4463698062       -0.0653167777        0.0035304010
 C         -3.1437352534        0.7255603794       -0.0005392054
 C         -1.9254529444       -0.1946039802        0.0003141548
 C         -0.6213800890        0.5970766564       -0.0016747133
 C          0.5921633092       -0.2942117684       -0.0003103891
 O          0.5779716706       -1.5077182642        0.0002780896
 O          1.7133525935        0.4171142053       -0.0002178885
 C          2.9610680295       -0.2979137582        0.0010426059
 C          4.0856821665        0.7190401065        0.0011844948
 H         -5.3005401065        0.6069731114        0.0014141288
 H         -4.5071189103       -0.7032894103       -0.8750933448
 H         -4.5059618546       -0.6961750019        0.8873451746
 H         -3.1113631826        1.3652978679       -0.8845939009
 H         -3.1088837477        1.3702006448        0.8798322370
 H         -1.9504403857       -0.8445762233       -0.8766489995
 H         -1.9494973213       -0.8416480118        0.8794741816
 H         -0.5584254598        1.2436224919        0.8758991842
 H         -0.5590809581        1.2402225829       -0.8818033557
 H          2.9909850957       -0.9393812343        0.8878938844
 H          2.9921994828       -0.9405482028       -0.8849171289
 H          5.0391016013        0.2012601998        0.0023628395
 H          4.0184233632        1.3469465078       -0.8822088678
 H          4.0169835282        1.3482736101        0.8835199444
          23
        -30.28764566
 C         -3.2839125750       -1.3241729387        0.2232303305
 C         -1.9949157702       -0.7067845911       -0.3055381943
 C         -1.9183529463        0.7866661167        0.0047402785
 C         -0.6499521731        1.4270663842       -0.5704631425
 C          0.5741589400        0.8680865393        0.1077854580
 O          0.8031362382        0.9483598559        1.2967842239
 O          1.3846486906        0.2733165073       -0.7588366203
 C          2.5902988272       -0.3352853333       -0.2663813159
 C          2.3362852478       -1.7643745290        0.1883866167
 H         -3.3495836772       -1.2003233849        1.3017094685
 H         -4.1480499846       -0.8449417772       -0.2304060152
 H         -3.3193866464       -2.3864052472       -0.0039114817
 H         -1.1376398582       -1.2124543826        0.1460198421
 H         -1.9358182498       -0.8548861169       -1.3858256163
 H         -1.9260031554        0.9354394923        1.0866249225
 H         -2.7893963158        1.2904188572       -0.4161478341
 H         -0.6719120840        2.5013472676       -0.3827364411
 H         -0.5717103755        1.2428115248       -1.6410478987
 H          3.2792072640       -0.3040468750       -1.1108101226
 H          2.9735491786        0.2698187313        0.5608539245
 H          1.8927142837       -2.3406427897       -0.6192424262
 H          3.2757631304       -2.2212513032        0.4816378288
 H          1.6609775725       -1.7693892057        1.0413812453
