 xtb: 6.7.1 (edcfbbe)
          04092505213D

 41 40  0     0  0            999 V2000
    4.9490    0.4642   -1.8259 C   0  0  0  0  0  0  0  0  0  0  0  0
    4.1203   -0.7953   -1.9829 C   0  0  0  0  0  0  0  0  0  0  0  0
    3.2966   -1.0417   -0.8300 O   0  0  0  0  0  0  0  0  0  0  0  0
    2.0076   -0.1452   -0.4882 P   0  0  0  0  0  0  0  0  0  0  0  0
    1.0553    0.4620   -2.0831 S   0  0  0  0  0  0  0  0  0  0  0  0
    2.5132    1.0499    0.4126 O   0  0  0  0  0  0  0  0  0  0  0  0
    3.1442    0.8644    1.7038 C   0  0  0  0  0  0  0  0  0  0  0  0
    2.8437    2.0844    2.5480 C   0  0  0  0  0  0  0  0  0  0  0  0
    1.0835   -1.5475    0.7901 S   0  0  0  0  0  0  0  0  0  0  0  0
   -0.2546   -2.0753   -0.3281 C   0  0  0  0  0  0  0  0  0  0  0  0
   -1.9171   -1.7552    0.3125 S   0  0  0  0  0  0  0  0  0  0  0  0
   -2.0075    0.3758    0.2657 P   0  0  0  0  0  0  0  0  0  0  0  0
   -0.5881    1.4221    1.1194 S   0  0  0  0  0  0  0  0  0  0  0  0
   -3.4657    0.6500    0.8259 O   0  0  0  0  0  0  0  0  0  0  0  0
   -4.0243    0.0899    2.0295 C   0  0  0  0  0  0  0  0  0  0  0  0
   -3.1222    0.2515    3.2346 C   0  0  0  0  0  0  0  0  0  0  0  0
   -2.1201    0.8212   -1.2397 O   0  0  0  0  0  0  0  0  0  0  0  0
   -2.8322    0.1623   -2.3145 C   0  0  0  0  0  0  0  0  0  0  0  0
   -4.2922   -0.0917   -2.0070 C   0  0  0  0  0  0  0  0  0  0  0  0
    4.2913    1.3283   -1.7292 H   0  0  0  0  0  0  0  0  0  0  0  0
    5.5775    0.3978   -0.9414 H   0  0  0  0  0  0  0  0  0  0  0  0
    5.5757    0.5948   -2.7025 H   0  0  0  0  0  0  0  0  0  0  0  0
    4.7452   -1.6865   -2.0562 H   0  0  0  0  0  0  0  0  0  0  0  0
    3.4716   -0.7207   -2.8616 H   0  0  0  0  0  0  0  0  0  0  0  0
    2.7447   -0.0432    2.1663 H   0  0  0  0  0  0  0  0  0  0  0  0
    4.2162    0.7420    1.5317 H   0  0  0  0  0  0  0  0  0  0  0  0
    3.2910    1.9609    3.5286 H   0  0  0  0  0  0  0  0  0  0  0  0
    3.2435    2.9754    2.0729 H   0  0  0  0  0  0  0  0  0  0  0  0
    1.7670    2.2000    2.6508 H   0  0  0  0  0  0  0  0  0  0  0  0
   -0.1938   -3.1552   -0.4356 H   0  0  0  0  0  0  0  0  0  0  0  0
   -0.1210   -1.5688   -1.2876 H   0  0  0  0  0  0  0  0  0  0  0  0
   -4.9597    0.6378    2.1558 H   0  0  0  0  0  0  0  0  0  0  0  0
   -4.2337   -0.9672    1.8441 H   0  0  0  0  0  0  0  0  0  0  0  0
   -2.8656    1.2984    3.3794 H   0  0  0  0  0  0  0  0  0  0  0  0
   -3.6309   -0.1214    4.1177 H   0  0  0  0  0  0  0  0  0  0  0  0
   -2.1994   -0.3099    3.0926 H   0  0  0  0  0  0  0  0  0  0  0  0
   -2.7082    0.8569   -3.1472 H   0  0  0  0  0  0  0  0  0  0  0  0
   -2.3119   -0.7710   -2.5456 H   0  0  0  0  0  0  0  0  0  0  0  0
   -4.3945   -0.8448   -1.2289 H   0  0  0  0  0  0  0  0  0  0  0  0
   -4.7713    0.8267   -1.6781 H   0  0  0  0  0  0  0  0  0  0  0  0
   -4.7801   -0.4479   -2.9092 H   0  0  0  0  0  0  0  0  0  0  0  0
  1  2  1  0  0  0  0
  2  3  1  0  0  0  0
  3  4  1  0  0  0  0
  4  5  2  0  0  0  0
  4  6  2  0  0  0  0
  6  7  1  0  0  0  0
  7  8  1  0  0  0  0
  4  9  1  0  0  0  0
  9 10  1  0  0  0  0
 10 11  1  0  0  0  0
 11 12  1  0  0  0  0
 12 13  2  0  0  0  0
 12 14  2  0  0  0  0
 14 15  1  0  0  0  0
 15 16  1  0  0  0  0
 12 17  2  0  0  0  0
 17 18  1  0  0  0  0
 18 19  1  0  0  0  0
  1 20  1  0  0  0  0
  1 21  1  0  0  0  0
  1 22  1  0  0  0  0
  2 23  1  0  0  0  0
  2 24  1  0  0  0  0
  7 25  1  0  0  0  0
  7 26  1  0  0  0  0
  8 27  1  0  0  0  0
  8 28  1  0  0  0  0
  8 29  1  0  0  0  0
 10 30  1  0  0  0  0
 10 31  1  0  0  0  0
 15 32  1  0  0  0  0
 15 33  1  0  0  0  0
 16 34  1  0  0  0  0
 16 35  1  0  0  0  0
 16 36  1  0  0  0  0
 18 37  1  0  0  0  0
 18 38  1  0  0  0  0
 19 39  1  0  0  0  0
 19 40  1  0  0  0  0
 19 41  1  0  0  0  0
M  END
