 xtb: 6.7.1 (edcfbbe)
          04032520193D

 20 20  0     0  0            999 V2000
    0.8550    1.3802   -0.5787 C   0  0  0  0  0  0  0  0  0  0  0  0
    1.5891    0.1405   -0.0526 C   0  0  0  0  0  0  0  0  0  0  0  0
    2.5340    0.0543   -0.6032 H   0  0  0  0  0  0  0  0  0  0  0  0
    0.7504   -1.1245   -0.3389 C   0  0  0  0  0  0  0  0  0  0  0  0
    1.1848   -1.9695    0.2178 H   0  0  0  0  0  0  0  0  0  0  0  0
   -0.6913   -0.9095    0.1655 C   0  0  0  0  0  0  0  0  0  0  0  0
   -1.3319   -1.7484   -0.1270 H   0  0  0  0  0  0  0  0  0  0  0  0
   -1.2639    0.3822   -0.4569 C   0  0  0  0  0  0  0  0  0  0  0  0
   -1.2755    0.2948   -1.5551 H   0  0  0  0  0  0  0  0  0  0  0  0
   -0.4589    1.4833   -0.0750 O   0  0  0  0  0  0  0  0  0  0  0  0
   -2.5606    0.6194   -0.0562 O   0  0  0  0  0  0  0  0  0  0  0  0
   -0.7494   -0.8438    1.5677 O   0  0  0  0  0  0  0  0  0  0  0  0
    0.8025   -1.3541   -1.7245 O   0  0  0  0  0  0  0  0  0  0  0  0
    1.8135    0.3094    1.3292 O   0  0  0  0  0  0  0  0  0  0  0  0
    0.8368    1.3372   -1.6750 H   0  0  0  0  0  0  0  0  0  0  0  0
    1.3647    2.2819   -0.2397 H   0  0  0  0  0  0  0  0  0  0  0  0
   -2.5974    0.5884    0.9153 H   0  0  0  0  0  0  0  0  0  0  0  0
   -0.1143   -0.1660    1.8651 H   0  0  0  0  0  0  0  0  0  0  0  0
    0.4315   -2.2239   -1.9310 H   0  0  0  0  0  0  0  0  0  0  0  0
    2.5001   -0.3001    1.6345 H   0  0  0  0  0  0  0  0  0  0  0  0
  1  2  1  0  0  0  0
  2  3  1  0  0  0  0
  2  4  1  0  0  0  0
  4  5  1  0  0  0  0
  4  6  1  0  0  0  0
  6  7  1  0  0  0  0
  6  8  1  0  0  0  0
  8  9  1  0  0  0  0
  1 10  1  0  0  0  0
  8 10  1  0  0  0  0
  8 11  1  0  0  0  0
  6 12  1  0  0  0  0
  4 13  1  0  0  0  0
  2 14  1  0  0  0  0
  1 15  1  0  0  0  0
  1 16  1  0  0  0  0
 11 17  1  0  0  0  0
 12 18  1  0  0  0  0
 13 19  1  0  0  0  0
 14 20  1  0  0  0  0
M  END
