 xtb: 6.7.1 (edcfbbe)
          04032519553D

 19 19  0     0  0            999 V2000
   -2.5457    0.6167    0.1082 C   0  0  0  0  0  0  0  0  0  0  0  0
   -1.2136   -0.0667    0.0615 C   0  0  0  0  0  0  0  0  0  0  0  0
   -1.1370   -1.4528    0.1182 C   0  0  0  0  0  0  0  0  0  0  0  0
    0.0861   -2.0937    0.0760 C   0  0  0  0  0  0  0  0  0  0  0  0
    1.2499   -1.3544   -0.0239 C   0  0  0  0  0  0  0  0  0  0  0  0
    1.1876    0.0318   -0.0815 C   0  0  0  0  0  0  0  0  0  0  0  0
   -0.0457    0.6894   -0.0391 C   0  0  0  0  0  0  0  0  0  0  0  0
   -0.0989    2.1864   -0.1019 C   0  0  0  0  0  0  0  0  0  0  0  0
    2.3238    0.7860   -0.1806 O   0  0  0  0  0  0  0  0  0  0  0  0
   -3.3478   -0.1124    0.1823 H   0  0  0  0  0  0  0  0  0  0  0  0
   -2.6015    1.2855    0.9657 H   0  0  0  0  0  0  0  0  0  0  0  0
   -2.6993    1.2152   -0.7884 H   0  0  0  0  0  0  0  0  0  0  0  0
   -2.0445   -2.0332    0.1963 H   0  0  0  0  0  0  0  0  0  0  0  0
    0.1378   -3.1711    0.1207 H   0  0  0  0  0  0  0  0  0  0  0  0
    2.2088   -1.8522   -0.0573 H   0  0  0  0  0  0  0  0  0  0  0  0
    0.9059    2.5922   -0.1711 H   0  0  0  0  0  0  0  0  0  0  0  0
   -0.6704    2.5117   -0.9699 H   0  0  0  0  0  0  0  0  0  0  0  0
   -0.5810    2.5887    0.7877 H   0  0  0  0  0  0  0  0  0  0  0  0
    3.1017    0.2104   -0.2002 H   0  0  0  0  0  0  0  0  0  0  0  0
  1  2  1  0  0  0  0
  2  3  4  0  0  0  0
  3  4  4  0  0  0  0
  4  5  4  0  0  0  0
  5  6  4  0  0  0  0
  2  7  4  0  0  0  0
  6  7  4  0  0  0  0
  7  8  1  0  0  0  0
  6  9  1  0  0  0  0
  1 10  1  0  0  0  0
  1 11  1  0  0  0  0
  1 12  1  0  0  0  0
  3 13  1  0  0  0  0
  4 14  1  0  0  0  0
  5 15  1  0  0  0  0
  8 16  1  0  0  0  0
  8 17  1  0  0  0  0
  8 18  1  0  0  0  0
  9 19  1  0  0  0  0
M  END
