 xtb: 6.7.1 (edcfbbe)
          04092505213D

 41 40  0     0  0            999 V2000
    3.1869    2.1456   -1.6172 C   0  0  0  0  0  0  0  0  0  0  0  0
    3.9399    1.7118   -0.3766 C   0  0  0  0  0  0  0  0  0  0  0  0
    3.6895    0.3311   -0.0645 O   0  0  0  0  0  0  0  0  0  0  0  0
    2.3093   -0.1451    0.5609 P   0  0  0  0  0  0  0  0  0  0  0  0
    1.5628    1.1047    1.8814 S   0  0  0  0  0  0  0  0  0  0  0  0
    2.6421   -1.6165    1.0458 O   0  0  0  0  0  0  0  0  0  0  0  0
    3.8370   -1.9822    1.7735 C   0  0  0  0  0  0  0  0  0  0  0  0
    3.9185   -1.3020    3.1239 C   0  0  0  0  0  0  0  0  0  0  0  0
    1.0919   -0.6258   -1.1178 S   0  0  0  0  0  0  0  0  0  0  0  0
   -0.1132   -1.6822   -0.2637 C   0  0  0  0  0  0  0  0  0  0  0  0
   -1.3105   -0.7629    0.7327 S   0  0  0  0  0  0  0  0  0  0  0  0
   -2.3804    0.0803   -0.9113 P   0  0  0  0  0  0  0  0  0  0  0  0
   -2.4849   -1.0269   -2.5200 S   0  0  0  0  0  0  0  0  0  0  0  0
   -1.6999    1.4663   -1.2282 O   0  0  0  0  0  0  0  0  0  0  0  0
   -1.2041    2.4473   -0.2881 C   0  0  0  0  0  0  0  0  0  0  0  0
   -2.2425    2.8842    0.7208 C   0  0  0  0  0  0  0  0  0  0  0  0
   -3.7853    0.4977   -0.2976 O   0  0  0  0  0  0  0  0  0  0  0  0
   -4.9082   -0.4005   -0.2613 C   0  0  0  0  0  0  0  0  0  0  0  0
   -4.6749   -1.5802    0.6604 C   0  0  0  0  0  0  0  0  0  0  0  0
    2.1131    2.0869   -1.4395 H   0  0  0  0  0  0  0  0  0  0  0  0
    3.4494    3.1698   -1.8613 H   0  0  0  0  0  0  0  0  0  0  0  0
    3.4325    1.4986   -2.4554 H   0  0  0  0  0  0  0  0  0  0  0  0
    3.6484    2.3210    0.4858 H   0  0  0  0  0  0  0  0  0  0  0  0
    5.0197    1.7613   -0.5217 H   0  0  0  0  0  0  0  0  0  0  0  0
    3.7482   -3.0652    1.8753 H   0  0  0  0  0  0  0  0  0  0  0  0
    4.7031   -1.7359    1.1561 H   0  0  0  0  0  0  0  0  0  0  0  0
    4.7833   -1.6756    3.6631 H   0  0  0  0  0  0  0  0  0  0  0  0
    4.0155   -0.2246    2.9986 H   0  0  0  0  0  0  0  0  0  0  0  0
    3.0195   -1.5006    3.7031 H   0  0  0  0  0  0  0  0  0  0  0  0
    0.4051   -2.3672    0.4011 H   0  0  0  0  0  0  0  0  0  0  0  0
   -0.6455   -2.2148   -1.0536 H   0  0  0  0  0  0  0  0  0  0  0  0
   -0.3300    2.0315    0.2225 H   0  0  0  0  0  0  0  0  0  0  0  0
   -0.8935    3.2716   -0.9320 H   0  0  0  0  0  0  0  0  0  0  0  0
   -2.5018    2.0547    1.3756 H   0  0  0  0  0  0  0  0  0  0  0  0
   -1.8274    3.6870    1.3225 H   0  0  0  0  0  0  0  0  0  0  0  0
   -3.1394    3.2323    0.2153 H   0  0  0  0  0  0  0  0  0  0  0  0
   -5.7297    0.2269    0.0875 H   0  0  0  0  0  0  0  0  0  0  0  0
   -5.1079   -0.7442   -1.2811 H   0  0  0  0  0  0  0  0  0  0  0  0
   -5.5948   -2.1483    0.7543 H   0  0  0  0  0  0  0  0  0  0  0  0
   -3.9022   -2.2273    0.2482 H   0  0  0  0  0  0  0  0  0  0  0  0
   -4.3595   -1.2380    1.6430 H   0  0  0  0  0  0  0  0  0  0  0  0
  1  2  1  0  0  0  0
  2  3  1  0  0  0  0
  3  4  2  0  0  0  0
  4  5  2  0  0  0  0
  4  6  2  0  0  0  0
  6  7  1  0  0  0  0
  7  8  1  0  0  0  0
  4  9  1  0  0  0  0
  9 10  1  0  0  0  0
 10 11  1  0  0  0  0
 11 12  1  0  0  0  0
 12 13  2  0  0  0  0
 12 14  2  0  0  0  0
 14 15  1  0  0  0  0
 15 16  1  0  0  0  0
 12 17  2  0  0  0  0
 17 18  1  0  0  0  0
 18 19  1  0  0  0  0
  1 20  1  0  0  0  0
  1 21  1  0  0  0  0
  1 22  1  0  0  0  0
  2 23  1  0  0  0  0
  2 24  1  0  0  0  0
  7 25  1  0  0  0  0
  7 26  1  0  0  0  0
  8 27  1  0  0  0  0
  8 28  1  0  0  0  0
  8 29  1  0  0  0  0
 10 30  1  0  0  0  0
 10 31  1  0  0  0  0
 15 32  1  0  0  0  0
 15 33  1  0  0  0  0
 16 34  1  0  0  0  0
 16 35  1  0  0  0  0
 16 36  1  0  0  0  0
 18 37  1  0  0  0  0
 18 38  1  0  0  0  0
 19 39  1  0  0  0  0
 19 40  1  0  0  0  0
 19 41  1  0  0  0  0
M  END
