  23
 
 C         -5.1649557055       -0.1948272775        0.0011730373
 C         -3.8521799319        0.5801409263        0.0002841242
 C         -2.6432413096       -0.3530147554       -0.0006962480
 C         -1.3240572436        0.4158715175       -0.0025204231
 C         -0.1183978444       -0.5218057759       -0.0064420408
 C          1.1994496703        0.2540881266       -0.0072055237
 C          2.3812411408       -0.6987043294       -0.0008553610
 Cl         3.9343791052        0.2090615711       -0.0000812202
 H         -6.0120175770        0.4866827111        0.0014389958
 H         -5.2329758914       -0.8282176128       -0.8804724299
 H         -5.2321118153       -0.8278585389        0.8831525443
 H         -3.8101580298        1.2237729434        0.8817089874
 H         -3.8114824818        1.2238819814       -0.8811265792
 H         -2.6876204836       -0.9971371196       -0.8817953358
 H         -2.6856201641       -0.9962656210        0.8811303436
 H         -1.2799131136        1.0579074763        0.8797918635
 H         -1.2839361256        1.0611754393       -0.8826650958
 H         -0.1621448087       -1.1628659041       -0.8887485153
 H         -0.1588827989       -1.1650094297        0.8745027663
 H          1.2498094463        0.8915427029       -0.8914216894
 H          1.2460298821        0.8976403691        0.8728644199
 H          2.3912878532       -1.3183076747        0.8940840064
 H          2.3960484179       -1.3255700023       -0.8906512669
          23
        -27.20368738
 C         -4.7726326240        0.7217384476        0.1681818073
 C         -3.6471338577       -0.1653610104       -0.3509553508
 C         -2.2955830463        0.2238394966        0.2435607369
 C         -1.1634334444       -0.6604119838       -0.2739442262
 C          0.1851554737       -0.2697647999        0.3254749518
 C          1.3152216397       -1.1578529127       -0.1919417277
 C          2.6647212037       -0.7954904863        0.3996098984
 Cl         3.1948716431        0.8385551511       -0.1407095145
 H         -4.8493494567        0.6452092873        1.2503565520
 H         -4.5864663131        1.7622426848       -0.0882859461
 H         -5.7243799992        0.4257842857       -0.2659202208
 H         -3.5971993067       -0.0880484194       -1.4393075151
 H         -3.8627887510       -1.2069699456       -0.1031255392
 H         -2.3459474008        0.1467583357        1.3322043564
 H         -2.0807520422        1.2663876977       -0.0029048880
 H         -1.1128634565       -0.5795144794       -1.3620889631
 H         -1.3800807506       -1.7027100835       -0.0293357339
 H          0.1335014311       -0.3477113075        1.4136521854
 H          0.4029773019        0.7711772468        0.0775001659
 H          1.1109892817       -2.1970273894        0.0735692261
 H          1.3644608230       -1.0904967653       -1.2799158946
 H          2.6276184417       -0.7542998441        1.4867398388
 H          3.4431733731       -1.4822928149        0.0731075339
