 xtb: 6.7.1 (edcfbbe)
          04092505213D

 41 40  0     0  0            999 V2000
    5.2511    0.9605   -0.7200 C   0  0  0  0  0  0  0  0  0  0  0  0
    4.1697    0.0909   -1.3322 C   0  0  0  0  0  0  0  0  0  0  0  0
    3.2914   -0.4321   -0.3202 O   0  0  0  0  0  0  0  0  0  0  0  0
    1.9351    0.3104    0.0851 P   0  0  0  0  0  0  0  0  0  0  0  0
    2.0983    2.1615    0.6952 S   0  0  0  0  0  0  0  0  0  0  0  0
    1.3701   -0.7424    1.1147 O   0  0  0  0  0  0  0  0  0  0  0  0
    1.3977   -0.5152    2.5363 C   0  0  0  0  0  0  0  0  0  0  0  0
    2.7887   -0.7386    3.0895 C   0  0  0  0  0  0  0  0  0  0  0  0
    0.7181    0.0411   -1.6374 S   0  0  0  0  0  0  0  0  0  0  0  0
    0.2395   -1.6946   -1.4493 C   0  0  0  0  0  0  0  0  0  0  0  0
   -0.9440   -2.0127   -0.0952 S   0  0  0  0  0  0  0  0  0  0  0  0
   -2.0756   -0.2425   -0.1709 P   0  0  0  0  0  0  0  0  0  0  0  0
   -2.7543    0.3391   -1.9227 S   0  0  0  0  0  0  0  0  0  0  0  0
   -1.1261    0.7360    0.6589 O   0  0  0  0  0  0  0  0  0  0  0  0
   -1.5807    2.0121    1.1651 C   0  0  0  0  0  0  0  0  0  0  0  0
   -1.5273    3.0963    0.1083 C   0  0  0  0  0  0  0  0  0  0  0  0
   -3.2273   -0.4955    0.8959 O   0  0  0  0  0  0  0  0  0  0  0  0
   -4.5034   -1.0523    0.5311 C   0  0  0  0  0  0  0  0  0  0  0  0
   -4.3975   -2.5213    0.1775 C   0  0  0  0  0  0  0  0  0  0  0  0
    4.8092    1.8301   -0.2383 H   0  0  0  0  0  0  0  0  0  0  0  0
    5.8091    0.3948    0.0208 H   0  0  0  0  0  0  0  0  0  0  0  0
    5.9264    1.2945   -1.5010 H   0  0  0  0  0  0  0  0  0  0  0  0
    4.5973   -0.7917   -1.8119 H   0  0  0  0  0  0  0  0  0  0  0  0
    3.5801    0.6536   -2.0644 H   0  0  0  0  0  0  0  0  0  0  0  0
    1.0596    0.5064    2.7368 H   0  0  0  0  0  0  0  0  0  0  0  0
    0.6752   -1.2303    2.9327 H   0  0  0  0  0  0  0  0  0  0  0  0
    3.1406   -1.7328    2.8285 H   0  0  0  0  0  0  0  0  0  0  0  0
    3.4706   -0.0007    2.6686 H   0  0  0  0  0  0  0  0  0  0  0  0
    2.7705   -0.6305    4.1693 H   0  0  0  0  0  0  0  0  0  0  0  0
    1.1143   -2.3063   -1.2406 H   0  0  0  0  0  0  0  0  0  0  0  0
   -0.2212   -1.9677   -2.3968 H   0  0  0  0  0  0  0  0  0  0  0  0
   -2.5914    1.8892    1.5609 H   0  0  0  0  0  0  0  0  0  0  0  0
   -0.8879    2.2330    1.9799 H   0  0  0  0  0  0  0  0  0  0  0  0
   -1.8370    4.0378    0.5506 H   0  0  0  0  0  0  0  0  0  0  0  0
   -0.5125    3.1997   -0.2696 H   0  0  0  0  0  0  0  0  0  0  0  0
   -2.1870    2.8570   -0.7230 H   0  0  0  0  0  0  0  0  0  0  0  0
   -5.1218   -0.8923    1.4152 H   0  0  0  0  0  0  0  0  0  0  0  0
   -4.9010   -0.4803   -0.3135 H   0  0  0  0  0  0  0  0  0  0  0  0
   -3.8228   -2.6411   -0.7397 H   0  0  0  0  0  0  0  0  0  0  0  0
   -3.9009   -3.0675    0.9753 H   0  0  0  0  0  0  0  0  0  0  0  0
   -5.3928   -2.9263    0.0256 H   0  0  0  0  0  0  0  0  0  0  0  0
  1  2  1  0  0  0  0
  2  3  1  0  0  0  0
  3  4  1  0  0  0  0
  4  5  2  0  0  0  0
  4  6  2  0  0  0  0
  6  7  1  0  0  0  0
  7  8  1  0  0  0  0
  4  9  1  0  0  0  0
  9 10  1  0  0  0  0
 10 11  1  0  0  0  0
 11 12  1  0  0  0  0
 12 13  2  0  0  0  0
 12 14  1  0  0  0  0
 14 15  1  0  0  0  0
 15 16  1  0  0  0  0
 12 17  2  0  0  0  0
 17 18  1  0  0  0  0
 18 19  1  0  0  0  0
  1 20  1  0  0  0  0
  1 21  1  0  0  0  0
  1 22  1  0  0  0  0
  2 23  1  0  0  0  0
  2 24  1  0  0  0  0
  7 25  1  0  0  0  0
  7 26  1  0  0  0  0
  8 27  1  0  0  0  0
  8 28  1  0  0  0  0
  8 29  1  0  0  0  0
 10 30  1  0  0  0  0
 10 31  1  0  0  0  0
 15 32  1  0  0  0  0
 15 33  1  0  0  0  0
 16 34  1  0  0  0  0
 16 35  1  0  0  0  0
 16 36  1  0  0  0  0
 18 37  1  0  0  0  0
 18 38  1  0  0  0  0
 19 39  1  0  0  0  0
 19 40  1  0  0  0  0
 19 41  1  0  0  0  0
M  END
