 xtb: 6.7.1 (edcfbbe)
          04092505203D

 41 40  0     0  0            999 V2000
    4.6125   -1.5072    0.9431 C   0  0  0  0  0  0  0  0  0  0  0  0
    4.5325   -0.0583    0.5077 C   0  0  0  0  0  0  0  0  0  0  0  0
    3.2068    0.4797    0.6568 O   0  0  0  0  0  0  0  0  0  0  0  0
    1.9903    0.0219   -0.2586 P   0  0  0  0  0  0  0  0  0  0  0  0
    2.4587   -0.2913   -2.1411 S   0  0  0  0  0  0  0  0  0  0  0  0
    0.9430    1.1877    0.0283 O   0  0  0  0  0  0  0  0  0  0  0  0
    0.8528    2.3384   -0.8330 C   0  0  0  0  0  0  0  0  0  0  0  0
    2.0789    3.2195   -0.7301 C   0  0  0  0  0  0  0  0  0  0  0  0
    1.1539   -1.5457    0.8617 S   0  0  0  0  0  0  0  0  0  0  0  0
   -0.1188   -2.1444   -0.3007 C   0  0  0  0  0  0  0  0  0  0  0  0
   -0.9303   -0.8582   -1.2875 S   0  0  0  0  0  0  0  0  0  0  0  0
   -2.1729    0.0719    0.1468 P   0  0  0  0  0  0  0  0  0  0  0  0
   -2.7879    1.8839   -0.2714 S   0  0  0  0  0  0  0  0  0  0  0  0
   -1.3023   -0.1095    1.4506 O   0  0  0  0  0  0  0  0  0  0  0  0
   -1.5662    0.6270    2.6658 C   0  0  0  0  0  0  0  0  0  0  0  0
   -0.2642    0.7390    3.4318 C   0  0  0  0  0  0  0  0  0  0  0  0
   -3.3591   -0.9590    0.4490 O   0  0  0  0  0  0  0  0  0  0  0  0
   -4.5942   -0.9369   -0.2815 C   0  0  0  0  0  0  0  0  0  0  0  0
   -4.4092   -1.3790   -1.7193 C   0  0  0  0  0  0  0  0  0  0  0  0
    5.6492   -1.8283    0.9308 H   0  0  0  0  0  0  0  0  0  0  0  0
    4.2084   -1.6235    1.9454 H   0  0  0  0  0  0  0  0  0  0  0  0
    4.0405   -2.1330    0.2596 H   0  0  0  0  0  0  0  0  0  0  0  0
    4.8311    0.0447   -0.5406 H   0  0  0  0  0  0  0  0  0  0  0  0
    5.1485    0.5869    1.1356 H   0  0  0  0  0  0  0  0  0  0  0  0
    0.7083    1.9897   -1.8619 H   0  0  0  0  0  0  0  0  0  0  0  0
   -0.0504    2.8541   -0.4995 H   0  0  0  0  0  0  0  0  0  0  0  0
    2.2635    3.4880    0.3067 H   0  0  0  0  0  0  0  0  0  0  0  0
    2.9476    2.6900   -1.1199 H   0  0  0  0  0  0  0  0  0  0  0  0
    1.9209    4.1196   -1.3158 H   0  0  0  0  0  0  0  0  0  0  0  0
   -0.8547   -2.6760    0.2977 H   0  0  0  0  0  0  0  0  0  0  0  0
    0.3487   -2.8015   -1.0319 H   0  0  0  0  0  0  0  0  0  0  0  0
   -1.9640    1.6121    2.3980 H   0  0  0  0  0  0  0  0  0  0  0  0
   -2.3206    0.0754    3.2317 H   0  0  0  0  0  0  0  0  0  0  0  0
    0.4799    1.2515    2.8266 H   0  0  0  0  0  0  0  0  0  0  0  0
   -0.4341    1.2997    4.3450 H   0  0  0  0  0  0  0  0  0  0  0  0
    0.1106   -0.2513    3.6752 H   0  0  0  0  0  0  0  0  0  0  0  0
   -5.2424   -1.6179    0.2716 H   0  0  0  0  0  0  0  0  0  0  0  0
   -4.9998    0.0792   -0.2422 H   0  0  0  0  0  0  0  0  0  0  0  0
   -3.9488   -2.3626   -1.7604 H   0  0  0  0  0  0  0  0  0  0  0  0
   -5.3751   -1.4125   -2.2129 H   0  0  0  0  0  0  0  0  0  0  0  0
   -3.7685   -0.6704   -2.2450 H   0  0  0  0  0  0  0  0  0  0  0  0
  1  2  1  0  0  0  0
  2  3  1  0  0  0  0
  3  4  2  0  0  0  0
  4  5  2  0  0  0  0
  4  6  1  0  0  0  0
  6  7  1  0  0  0  0
  7  8  1  0  0  0  0
  4  9  1  0  0  0  0
  9 10  1  0  0  0  0
 10 11  1  0  0  0  0
 11 12  1  0  0  0  0
 12 13  2  0  0  0  0
 12 14  2  0  0  0  0
 14 15  1  0  0  0  0
 15 16  1  0  0  0  0
 12 17  1  0  0  0  0
 17 18  1  0  0  0  0
 18 19  1  0  0  0  0
  1 20  1  0  0  0  0
  1 21  1  0  0  0  0
  1 22  1  0  0  0  0
  2 23  1  0  0  0  0
  2 24  1  0  0  0  0
  7 25  1  0  0  0  0
  7 26  1  0  0  0  0
  8 27  1  0  0  0  0
  8 28  1  0  0  0  0
  8 29  1  0  0  0  0
 10 30  1  0  0  0  0
 10 31  1  0  0  0  0
 15 32  1  0  0  0  0
 15 33  1  0  0  0  0
 16 34  1  0  0  0  0
 16 35  1  0  0  0  0
 16 36  1  0  0  0  0
 18 37  1  0  0  0  0
 18 38  1  0  0  0  0
 19 39  1  0  0  0  0
 19 40  1  0  0  0  0
 19 41  1  0  0  0  0
M  END
