 xtb: 6.7.1 (edcfbbe)
          04092505213D

 41 40  0     0  0            999 V2000
    3.8824    1.4578   -2.0153 C   0  0  0  0  0  0  0  0  0  0  0  0
    2.5601    0.7543   -2.2305 C   0  0  0  0  0  0  0  0  0  0  0  0
    2.4131   -0.3684   -1.3435 O   0  0  0  0  0  0  0  0  0  0  0  0
    2.1842   -0.2062    0.2159 P   0  0  0  0  0  0  0  0  0  0  0  0
    1.0968    1.3600    0.7091 S   0  0  0  0  0  0  0  0  0  0  0  0
    3.6722   -0.1885    0.7667 O   0  0  0  0  0  0  0  0  0  0  0  0
    4.0813   -0.5632    2.0968 C   0  0  0  0  0  0  0  0  0  0  0  0
    3.2348    0.0721    3.1798 C   0  0  0  0  0  0  0  0  0  0  0  0
    1.5395   -2.1478    0.7188 S   0  0  0  0  0  0  0  0  0  0  0  0
   -0.1432   -2.1416    0.0482 C   0  0  0  0  0  0  0  0  0  0  0  0
   -1.3084   -1.1243    1.0094 S   0  0  0  0  0  0  0  0  0  0  0  0
   -1.9037    0.2139   -0.4973 P   0  0  0  0  0  0  0  0  0  0  0  0
   -0.9216    0.2503   -2.1923 S   0  0  0  0  0  0  0  0  0  0  0  0
   -2.0503    1.6731    0.0996 O   0  0  0  0  0  0  0  0  0  0  0  0
   -2.2935    2.0092    1.4860 C   0  0  0  0  0  0  0  0  0  0  0  0
   -3.5606    1.3820    2.0275 C   0  0  0  0  0  0  0  0  0  0  0  0
   -3.3916   -0.3505   -0.6869 O   0  0  0  0  0  0  0  0  0  0  0  0
   -4.2623    0.2245   -1.6797 C   0  0  0  0  0  0  0  0  0  0  0  0
   -5.5901   -0.5002   -1.6030 C   0  0  0  0  0  0  0  0  0  0  0  0
    4.7020    0.7511   -2.1135 H   0  0  0  0  0  0  0  0  0  0  0  0
    3.9924    2.2497   -2.7494 H   0  0  0  0  0  0  0  0  0  0  0  0
    3.9080    1.8901   -1.0155 H   0  0  0  0  0  0  0  0  0  0  0  0
    2.4800    0.3152   -3.2259 H   0  0  0  0  0  0  0  0  0  0  0  0
    1.7197    1.4391   -2.0735 H   0  0  0  0  0  0  0  0  0  0  0  0
    4.0414   -1.6537    2.1640 H   0  0  0  0  0  0  0  0  0  0  0  0
    5.1179   -0.2256    2.1499 H   0  0  0  0  0  0  0  0  0  0  0  0
    3.6400   -0.1886    4.1522 H   0  0  0  0  0  0  0  0  0  0  0  0
    3.2260    1.1542    3.0705 H   0  0  0  0  0  0  0  0  0  0  0  0
    2.2090   -0.2898    3.1145 H   0  0  0  0  0  0  0  0  0  0  0  0
   -0.4794   -3.1737    0.1012 H   0  0  0  0  0  0  0  0  0  0  0  0
   -0.1258   -1.7786   -0.9831 H   0  0  0  0  0  0  0  0  0  0  0  0
   -1.4170    1.7040    2.0634 H   0  0  0  0  0  0  0  0  0  0  0  0
   -2.3520    3.0986    1.4685 H   0  0  0  0  0  0  0  0  0  0  0  0
   -3.4802    0.2958    2.0168 H   0  0  0  0  0  0  0  0  0  0  0  0
   -3.7057    1.7136    3.0508 H   0  0  0  0  0  0  0  0  0  0  0  0
   -4.4181    1.6812    1.4295 H   0  0  0  0  0  0  0  0  0  0  0  0
   -4.3719    1.2946   -1.4752 H   0  0  0  0  0  0  0  0  0  0  0  0
   -3.7921    0.1052   -2.6617 H   0  0  0  0  0  0  0  0  0  0  0  0
   -6.0239   -0.3797   -0.6146 H   0  0  0  0  0  0  0  0  0  0  0  0
   -6.2645   -0.0887   -2.3469 H   0  0  0  0  0  0  0  0  0  0  0  0
   -5.4436   -1.5590   -1.7949 H   0  0  0  0  0  0  0  0  0  0  0  0
  1  2  1  0  0  0  0
  2  3  1  0  0  0  0
  3  4  2  0  0  0  0
  4  5  2  0  0  0  0
  4  6  2  0  0  0  0
  6  7  1  0  0  0  0
  7  8  1  0  0  0  0
  4  9  1  0  0  0  0
  9 10  1  0  0  0  0
 10 11  1  0  0  0  0
 11 12  1  0  0  0  0
 12 13  2  0  0  0  0
 12 14  2  0  0  0  0
 14 15  1  0  0  0  0
 15 16  1  0  0  0  0
 12 17  1  0  0  0  0
 17 18  1  0  0  0  0
 18 19  1  0  0  0  0
  1 20  1  0  0  0  0
  1 21  1  0  0  0  0
  1 22  1  0  0  0  0
  2 23  1  0  0  0  0
  2 24  1  0  0  0  0
  7 25  1  0  0  0  0
  7 26  1  0  0  0  0
  8 27  1  0  0  0  0
  8 28  1  0  0  0  0
  8 29  1  0  0  0  0
 10 30  1  0  0  0  0
 10 31  1  0  0  0  0
 15 32  1  0  0  0  0
 15 33  1  0  0  0  0
 16 34  1  0  0  0  0
 16 35  1  0  0  0  0
 16 36  1  0  0  0  0
 18 37  1  0  0  0  0
 18 38  1  0  0  0  0
 19 39  1  0  0  0  0
 19 40  1  0  0  0  0
 19 41  1  0  0  0  0
M  END
