 xtb: 6.7.1 (edcfbbe)
          04092507313D

 38 37  0     0  0            999 V2000
    4.0512   -4.0358   -0.8532 C   0  0  0  0  0  0  0  0  0  0  0  0
    2.6456   -3.5115   -0.6374 C   0  0  0  0  0  0  0  0  0  0  0  0
    2.7035   -2.0698   -0.6498 O   0  0  0  0  0  0  0  0  0  0  0  0
    1.6142   -1.4034   -0.3636 C   0  0  0  0  0  0  0  0  0  0  0  0
    0.5491   -1.9273   -0.0953 O   0  0  0  0  0  0  0  0  0  0  0  0
    1.8374    0.0892   -0.3690 C   0  0  0  0  0  0  0  0  0  0  0  0
    0.8347    0.8586   -1.2514 C   0  0  0  0  0  0  0  0  0  0  0  0
    1.2828    1.0947   -2.2178 H   0  0  0  0  0  0  0  0  0  0  0  0
    0.4396    2.1438   -0.5372 C   0  0  0  0  0  0  0  0  0  0  0  0
   -0.6767    2.3526   -0.1172 O   0  0  0  0  0  0  0  0  0  0  0  0
    1.4597    2.9545   -0.4206 O   0  0  0  0  0  0  0  0  0  0  0  0
    1.2846    4.1638    0.3509 C   0  0  0  0  0  0  0  0  0  0  0  0
    1.5013    3.8866    1.8297 C   0  0  0  0  0  0  0  0  0  0  0  0
   -0.7023   -0.0289   -1.6943 S   0  0  0  0  0  0  0  0  0  0  0  0
   -1.5911   -0.2385    0.2010 P   0  0  0  0  0  0  0  0  0  0  0  0
   -0.7303    0.0908    1.9401 S   0  0  0  0  0  0  0  0  0  0  0  0
   -2.8637    0.6789   -0.1073 O   0  0  0  0  0  0  0  0  0  0  0  0
   -3.8283    0.9811    0.9032 C   0  0  0  0  0  0  0  0  0  0  0  0
   -2.3442   -1.6540    0.1583 O   0  0  0  0  0  0  0  0  0  0  0  0
   -1.9367   -2.8545    0.8094 C   0  0  0  0  0  0  0  0  0  0  0  0
    4.0324   -5.1204   -0.8557 H   0  0  0  0  0  0  0  0  0  0  0  0
    4.4379   -3.6814   -1.8036 H   0  0  0  0  0  0  0  0  0  0  0  0
    4.7042   -3.6908   -0.0574 H   0  0  0  0  0  0  0  0  0  0  0  0
    2.2311   -3.8317    0.3234 H   0  0  0  0  0  0  0  0  0  0  0  0
    1.9655   -3.8315   -1.4325 H   0  0  0  0  0  0  0  0  0  0  0  0
    2.8560    0.2995   -0.6893 H   0  0  0  0  0  0  0  0  0  0  0  0
    1.7137    0.4034    0.6730 H   0  0  0  0  0  0  0  0  0  0  0  0
    2.0363    4.8462   -0.0444 H   0  0  0  0  0  0  0  0  0  0  0  0
    0.2782    4.5505    0.1706 H   0  0  0  0  0  0  0  0  0  0  0  0
    0.7717    3.1616    2.1878 H   0  0  0  0  0  0  0  0  0  0  0  0
    2.4992    3.4914    1.9969 H   0  0  0  0  0  0  0  0  0  0  0  0
    1.3822    4.8079    2.3899 H   0  0  0  0  0  0  0  0  0  0  0  0
   -4.4432    0.1044    1.1085 H   0  0  0  0  0  0  0  0  0  0  0  0
   -4.4314    1.7898    0.4988 H   0  0  0  0  0  0  0  0  0  0  0  0
   -3.3247    1.3034    1.8170 H   0  0  0  0  0  0  0  0  0  0  0  0
   -1.3469   -3.4569    0.1224 H   0  0  0  0  0  0  0  0  0  0  0  0
   -2.8531   -3.3684    1.0915 H   0  0  0  0  0  0  0  0  0  0  0  0
   -1.3411   -2.6183    1.6928 H   0  0  0  0  0  0  0  0  0  0  0  0
  1  2  1  0  0  0  0
  2  3  1  0  0  0  0
  3  4  4  0  0  0  0
  4  5  2  0  0  0  0
  4  6  1  0  0  0  0
  6  7  1  0  0  0  0
  7  8  1  0  0  0  0
  7  9  1  0  0  0  0
  9 10  2  0  0  0  0
  9 11  4  0  0  0  0
 11 12  1  0  0  0  0
 12 13  1  0  0  0  0
  7 14  1  0  0  0  0
 14 15  1  0  0  0  0
 15 16  2  0  0  0  0
 15 17  1  0  0  0  0
 17 18  1  0  0  0  0
 15 19  1  0  0  0  0
 19 20  1  0  0  0  0
  1 21  1  0  0  0  0
  1 22  1  0  0  0  0
  1 23  1  0  0  0  0
  2 24  1  0  0  0  0
  2 25  1  0  0  0  0
  6 26  1  0  0  0  0
  6 27  1  0  0  0  0
 12 28  1  0  0  0  0
 12 29  1  0  0  0  0
 13 30  1  0  0  0  0
 13 31  1  0  0  0  0
 13 32  1  0  0  0  0
 18 33  1  0  0  0  0
 18 34  1  0  0  0  0
 18 35  1  0  0  0  0
 20 36  1  0  0  0  0
 20 37  1  0  0  0  0
 20 38  1  0  0  0  0
M  END
