 xtb: 6.7.1 (edcfbbe)
          04092513573D

 41 40  0     0  0            999 V2000
    3.4690   -2.1278    1.7898 C   0  0  0  0  0  0  0  0  0  0  0  0
    2.1007   -2.0840    1.1401 C   0  0  0  0  0  0  0  0  0  0  0  0
    1.6873   -0.7296    0.8737 O   0  0  0  0  0  0  0  0  0  0  0  0
    2.3287    0.1316   -0.3131 P   0  0  0  0  0  0  0  0  0  0  0  0
    2.9639   -0.8868   -1.8526 S   0  0  0  0  0  0  0  0  0  0  0  0
    3.4783    1.0138    0.3272 O   0  0  0  0  0  0  0  0  0  0  0  0
    3.2796    1.7894    1.5372 C   0  0  0  0  0  0  0  0  0  0  0  0
    4.6426    2.1261    2.1058 C   0  0  0  0  0  0  0  0  0  0  0  0
    0.7516    1.5119   -0.6394 S   0  0  0  0  0  0  0  0  0  0  0  0
   -0.1859    0.4891   -1.8061 C   0  0  0  0  0  0  0  0  0  0  0  0
   -0.9827   -0.9418   -1.0398 S   0  0  0  0  0  0  0  0  0  0  0  0
   -2.6138    0.1351   -0.1723 P   0  0  0  0  0  0  0  0  0  0  0  0
   -3.5018    1.4193   -1.3461 S   0  0  0  0  0  0  0  0  0  0  0  0
   -2.0230    0.8312    1.1115 O   0  0  0  0  0  0  0  0  0  0  0  0
   -1.3858    0.0969    2.1874 C   0  0  0  0  0  0  0  0  0  0  0  0
   -0.5781    1.0858    3.0009 C   0  0  0  0  0  0  0  0  0  0  0  0
   -3.5210   -1.0084    0.4584 O   0  0  0  0  0  0  0  0  0  0  0  0
   -4.6125   -1.6349   -0.2407 C   0  0  0  0  0  0  0  0  0  0  0  0
   -4.1399   -2.5312   -1.3665 C   0  0  0  0  0  0  0  0  0  0  0  0
    4.2162   -1.7309    1.1028 H   0  0  0  0  0  0  0  0  0  0  0  0
    3.4766   -1.5383    2.7031 H   0  0  0  0  0  0  0  0  0  0  0  0
    3.7207   -3.1568    2.0267 H   0  0  0  0  0  0  0  0  0  0  0  0
    1.3257   -2.4757    1.8004 H   0  0  0  0  0  0  0  0  0  0  0  0
    2.0999   -2.6405    0.1979 H   0  0  0  0  0  0  0  0  0  0  0  0
    2.7239    2.6912    1.2679 H   0  0  0  0  0  0  0  0  0  0  0  0
    2.6899    1.1956    2.2399 H   0  0  0  0  0  0  0  0  0  0  0  0
    4.5131    2.7199    3.0051 H   0  0  0  0  0  0  0  0  0  0  0  0
    5.1854    1.2172    2.3498 H   0  0  0  0  0  0  0  0  0  0  0  0
    5.2200    2.6927    1.3813 H   0  0  0  0  0  0  0  0  0  0  0  0
    0.4927    0.1036   -2.5673 H   0  0  0  0  0  0  0  0  0  0  0  0
   -0.9492    1.1340   -2.2436 H   0  0  0  0  0  0  0  0  0  0  0  0
   -2.1699   -0.3766    2.7809 H   0  0  0  0  0  0  0  0  0  0  0  0
   -0.7473   -0.6755    1.7487 H   0  0  0  0  0  0  0  0  0  0  0  0
    0.1612    1.5676    2.3659 H   0  0  0  0  0  0  0  0  0  0  0  0
   -1.2294    1.8496    3.4149 H   0  0  0  0  0  0  0  0  0  0  0  0
   -0.0780    0.5595    3.8075 H   0  0  0  0  0  0  0  0  0  0  0  0
   -5.1232   -2.2039    0.5378 H   0  0  0  0  0  0  0  0  0  0  0  0
   -5.2730   -0.8508   -0.6230 H   0  0  0  0  0  0  0  0  0  0  0  0
   -3.4080   -3.2471   -1.0017 H   0  0  0  0  0  0  0  0  0  0  0  0
   -4.9919   -3.0646   -1.7765 H   0  0  0  0  0  0  0  0  0  0  0  0
   -3.6853   -1.9342   -2.1555 H   0  0  0  0  0  0  0  0  0  0  0  0
  1  2  1  0  0  0  0
  2  3  1  0  0  0  0
  3  4  1  0  0  0  0
  4  5  2  0  0  0  0
  4  6  2  0  0  0  0
  6  7  1  0  0  0  0
  7  8  1  0  0  0  0
  4  9  1  0  0  0  0
  9 10  1  0  0  0  0
 10 11  1  0  0  0  0
 11 12  1  0  0  0  0
 12 13  2  0  0  0  0
 12 14  2  0  0  0  0
 14 15  1  0  0  0  0
 15 16  1  0  0  0  0
 12 17  2  0  0  0  0
 17 18  1  0  0  0  0
 18 19  1  0  0  0  0
  1 20  1  0  0  0  0
  1 21  1  0  0  0  0
  1 22  1  0  0  0  0
  2 23  1  0  0  0  0
  2 24  1  0  0  0  0
  7 25  1  0  0  0  0
  7 26  1  0  0  0  0
  8 27  1  0  0  0  0
  8 28  1  0  0  0  0
  8 29  1  0  0  0  0
 10 30  1  0  0  0  0
 10 31  1  0  0  0  0
 15 32  1  0  0  0  0
 15 33  1  0  0  0  0
 16 34  1  0  0  0  0
 16 35  1  0  0  0  0
 16 36  1  0  0  0  0
 18 37  1  0  0  0  0
 18 38  1  0  0  0  0
 19 39  1  0  0  0  0
 19 40  1  0  0  0  0
 19 41  1  0  0  0  0
M  END
