 xtb: 6.7.1 (edcfbbe)
          04092505213D

 41 40  0     0  0            999 V2000
    1.5130   -3.1659   -0.8201 C   0  0  0  0  0  0  0  0  0  0  0  0
    2.6334   -2.3151   -1.3857 C   0  0  0  0  0  0  0  0  0  0  0  0
    3.0778   -1.3256   -0.4418 O   0  0  0  0  0  0  0  0  0  0  0  0
    2.3567    0.0839   -0.2764 P   0  0  0  0  0  0  0  0  0  0  0  0
    1.8828    0.9817   -1.9466 S   0  0  0  0  0  0  0  0  0  0  0  0
    3.4247    0.9217    0.5265 O   0  0  0  0  0  0  0  0  0  0  0  0
    4.0984    0.4433    1.7214 C   0  0  0  0  0  0  0  0  0  0  0  0
    3.5679    1.1541    2.9508 C   0  0  0  0  0  0  0  0  0  0  0  0
    0.8018   -0.3331    1.1203 S   0  0  0  0  0  0  0  0  0  0  0  0
    0.1221    1.3361    1.2326 C   0  0  0  0  0  0  0  0  0  0  0  0
   -1.1253    1.7742   -0.0358 S   0  0  0  0  0  0  0  0  0  0  0  0
   -2.3057    0.0045   -0.0862 P   0  0  0  0  0  0  0  0  0  0  0  0
   -4.1509    0.2389   -0.6967 S   0  0  0  0  0  0  0  0  0  0  0  0
   -2.1338   -0.6585    1.3459 O   0  0  0  0  0  0  0  0  0  0  0  0
   -3.1563   -0.5477    2.3551 C   0  0  0  0  0  0  0  0  0  0  0  0
   -3.1168    0.7949    3.0582 C   0  0  0  0  0  0  0  0  0  0  0  0
   -1.4373   -1.0345   -0.9275 O   0  0  0  0  0  0  0  0  0  0  0  0
   -1.7447   -1.3178   -2.3048 C   0  0  0  0  0  0  0  0  0  0  0  0
   -1.4618   -0.1366   -3.2111 C   0  0  0  0  0  0  0  0  0  0  0  0
    1.2814   -3.9608   -1.5222 H   0  0  0  0  0  0  0  0  0  0  0  0
    1.8163   -3.6033    0.1274 H   0  0  0  0  0  0  0  0  0  0  0  0
    0.6196   -2.5665   -0.6552 H   0  0  0  0  0  0  0  0  0  0  0  0
    2.3210   -1.8064   -2.3040 H   0  0  0  0  0  0  0  0  0  0  0  0
    3.5244   -2.9134   -1.5838 H   0  0  0  0  0  0  0  0  0  0  0  0
    3.9695   -0.6375    1.7961 H   0  0  0  0  0  0  0  0  0  0  0  0
    5.1507    0.6767    1.5527 H   0  0  0  0  0  0  0  0  0  0  0  0
    2.5384    0.8661    3.1470 H   0  0  0  0  0  0  0  0  0  0  0  0
    4.1794    0.8809    3.8050 H   0  0  0  0  0  0  0  0  0  0  0  0
    3.6167    2.2303    2.8092 H   0  0  0  0  0  0  0  0  0  0  0  0
    0.9173    2.0695    1.1050 H   0  0  0  0  0  0  0  0  0  0  0  0
   -0.3360    1.4228    2.2139 H   0  0  0  0  0  0  0  0  0  0  0  0
   -4.1310   -0.7010    1.8808 H   0  0  0  0  0  0  0  0  0  0  0  0
   -2.9420   -1.3694    3.0392 H   0  0  0  0  0  0  0  0  0  0  0  0
   -3.2575    1.5966    2.3334 H   0  0  0  0  0  0  0  0  0  0  0  0
   -3.9205    0.8381    3.7865 H   0  0  0  0  0  0  0  0  0  0  0  0
   -2.1685    0.9334    3.5702 H   0  0  0  0  0  0  0  0  0  0  0  0
   -1.1109   -2.1714   -2.5489 H   0  0  0  0  0  0  0  0  0  0  0  0
   -2.7988   -1.6045   -2.3716 H   0  0  0  0  0  0  0  0  0  0  0  0
   -0.4310    0.1949   -3.1057 H   0  0  0  0  0  0  0  0  0  0  0  0
   -1.6416   -0.4219   -4.2423 H   0  0  0  0  0  0  0  0  0  0  0  0
   -2.1193    0.6943   -2.9546 H   0  0  0  0  0  0  0  0  0  0  0  0
  1  2  1  0  0  0  0
  2  3  1  0  0  0  0
  3  4  2  0  0  0  0
  4  5  2  0  0  0  0
  4  6  2  0  0  0  0
  6  7  1  0  0  0  0
  7  8  1  0  0  0  0
  4  9  1  0  0  0  0
  9 10  1  0  0  0  0
 10 11  1  0  0  0  0
 11 12  1  0  0  0  0
 12 13  2  0  0  0  0
 12 14  2  0  0  0  0
 14 15  1  0  0  0  0
 15 16  1  0  0  0  0
 12 17  1  0  0  0  0
 17 18  1  0  0  0  0
 18 19  1  0  0  0  0
  1 20  1  0  0  0  0
  1 21  1  0  0  0  0
  1 22  1  0  0  0  0
  2 23  1  0  0  0  0
  2 24  1  0  0  0  0
  7 25  1  0  0  0  0
  7 26  1  0  0  0  0
  8 27  1  0  0  0  0
  8 28  1  0  0  0  0
  8 29  1  0  0  0  0
 10 30  1  0  0  0  0
 10 31  1  0  0  0  0
 15 32  1  0  0  0  0
 15 33  1  0  0  0  0
 16 34  1  0  0  0  0
 16 35  1  0  0  0  0
 16 36  1  0  0  0  0
 18 37  1  0  0  0  0
 18 38  1  0  0  0  0
 19 39  1  0  0  0  0
 19 40  1  0  0  0  0
 19 41  1  0  0  0  0
M  END
