  19
 
 C         -3.8091274560        0.7237090159        0.0654196102
 O         -2.3846625780        0.8048924714        0.0298455886
 C         -1.7027114494       -0.3404218198        0.1216777065
 O         -2.2546769429       -1.4224723956        0.2381763510
 C         -0.2465723265       -0.1523514354        0.0736528240
 C          0.5790568102       -1.2721319614        0.1793986813
 C          1.9495386204       -1.1394443593        0.1381353119
 C          2.5227971240        0.1236948355       -0.0117674357
 C          1.6981185034        1.2470846470       -0.1184216176
 C          0.3298342721        1.1113482770       -0.0759835301
 O          3.8545716193        0.3133815506       -0.0594290868
 H         -4.1574630186        1.7373380346        0.2391108815
 H         -4.1269339029        0.0535830147        0.8658216126
 H         -4.1817777380        0.3424376986       -0.8866111295
 H          0.1183691048       -2.2416023908        0.2943126546
 H          2.5777984071       -2.0133633884        0.2217221588
 H          2.1608876345        2.2138155056       -0.2339114024
 H         -0.3069274804        1.9770973952       -0.1582736481
 H          4.3361733117       -0.5254022548        0.0231127117
          19
        -33.42318000
 C         -3.8062765736        0.7187906500        0.0081984755
 O         -2.3821714862        0.8090237733        0.0014321442
 C         -1.7015639893       -0.3408007256       -0.0029055675
 O         -2.2582203696       -1.4267507240       -0.0029290936
 C         -0.2447262549       -0.1536045647       -0.0045451210
 C          0.5772017164       -1.2810273028       -0.0008268116
 C          1.9484082178       -1.1492855827        0.0021881831
 C          2.5260051848        0.1207528530        0.0012187857
 C          1.7050116324        1.2518645507       -0.0043346803
 C          0.3360005197        1.1169644514       -0.0069749397
 O          3.8587030259        0.3100262749        0.0055974129
 H         -4.1533620927        0.2116030732       -0.8933187558
 H         -4.1634582946        1.7432210479        0.0421416396
 H         -4.1414964729        0.1561928674        0.8808004101
 H          0.1130699734       -2.2556225055        0.0000922790
 H          2.5737251754       -2.0292264407        0.0056715640
 H          2.1711960682        2.2237774790       -0.0057099647
 H         -0.2980291841        1.9885611834       -0.0106742865
 H          4.3375711790       -0.5343356109        0.0110228648
