 xtb: 6.7.1 (edcfbbe)
          04092505213D

 41 40  0     0  0            999 V2000
    5.3226    0.4000   -0.6909 C   0  0  0  0  0  0  0  0  0  0  0  0
    4.2864   -0.6082   -1.1497 C   0  0  0  0  0  0  0  0  0  0  0  0
    3.3099   -0.8482   -0.1175 O   0  0  0  0  0  0  0  0  0  0  0  0
    1.8965   -0.1046   -0.0846 P   0  0  0  0  0  0  0  0  0  0  0  0
    2.0109    1.8548   -0.1749 S   0  0  0  0  0  0  0  0  0  0  0  0
    1.3034   -0.7429    1.2317 O   0  0  0  0  0  0  0  0  0  0  0  0
    1.5486   -0.1809    2.5383 C   0  0  0  0  0  0  0  0  0  0  0  0
    0.4545   -0.6580    3.4701 C   0  0  0  0  0  0  0  0  0  0  0  0
    0.8603   -1.0691   -1.6410 S   0  0  0  0  0  0  0  0  0  0  0  0
   -0.1400    0.3104   -2.2753 C   0  0  0  0  0  0  0  0  0  0  0  0
   -1.9353    0.1408   -2.0293 S   0  0  0  0  0  0  0  0  0  0  0  0
   -2.0473    0.0617    0.0893 P   0  0  0  0  0  0  0  0  0  0  0  0
   -3.8370    0.3591    0.8233 S   0  0  0  0  0  0  0  0  0  0  0  0
   -0.9074    1.0274    0.6284 O   0  0  0  0  0  0  0  0  0  0  0  0
   -1.2369    2.3637    1.0557 C   0  0  0  0  0  0  0  0  0  0  0  0
   -1.4969    3.2853   -0.1185 C   0  0  0  0  0  0  0  0  0  0  0  0
   -1.3363   -1.3038    0.4757 O   0  0  0  0  0  0  0  0  0  0  0  0
   -1.8986   -2.5724    0.0872 C   0  0  0  0  0  0  0  0  0  0  0  0
   -2.7484   -3.1517    1.2008 C   0  0  0  0  0  0  0  0  0  0  0  0
    6.0767    0.5127   -1.4630 H   0  0  0  0  0  0  0  0  0  0  0  0
    4.8560    1.3654   -0.5078 H   0  0  0  0  0  0  0  0  0  0  0  0
    5.7950    0.0591    0.2261 H   0  0  0  0  0  0  0  0  0  0  0  0
    4.7375   -1.5844   -1.3369 H   0  0  0  0  0  0  0  0  0  0  0  0
    3.7784   -0.2637   -2.0551 H   0  0  0  0  0  0  0  0  0  0  0  0
    2.5331   -0.5202    2.8708 H   0  0  0  0  0  0  0  0  0  0  0  0
    1.5566    0.9113    2.4535 H   0  0  0  0  0  0  0  0  0  0  0  0
    0.6117   -0.2323    4.4559 H   0  0  0  0  0  0  0  0  0  0  0  0
   -0.5178   -0.3474    3.0941 H   0  0  0  0  0  0  0  0  0  0  0  0
    0.4707   -1.7420    3.5361 H   0  0  0  0  0  0  0  0  0  0  0  0
   -0.0162    0.3372   -3.3551 H   0  0  0  0  0  0  0  0  0  0  0  0
    0.2176    1.2345   -1.8148 H   0  0  0  0  0  0  0  0  0  0  0  0
   -2.1144    2.3108    1.7078 H   0  0  0  0  0  0  0  0  0  0  0  0
   -0.3651    2.6873    1.6263 H   0  0  0  0  0  0  0  0  0  0  0  0
   -2.3367    2.9137   -0.7052 H   0  0  0  0  0  0  0  0  0  0  0  0
   -1.7386    4.2752    0.2549 H   0  0  0  0  0  0  0  0  0  0  0  0
   -0.6140    3.3527   -0.7500 H   0  0  0  0  0  0  0  0  0  0  0  0
   -2.4870   -2.4439   -0.8284 H   0  0  0  0  0  0  0  0  0  0  0  0
   -1.0332   -3.2042   -0.1264 H   0  0  0  0  0  0  0  0  0  0  0  0
   -3.5947   -2.4997    1.4065 H   0  0  0  0  0  0  0  0  0  0  0  0
   -3.1164   -4.1267    0.8983 H   0  0  0  0  0  0  0  0  0  0  0  0
   -2.1578   -3.2537    2.1069 H   0  0  0  0  0  0  0  0  0  0  0  0
  1  2  1  0  0  0  0
  2  3  1  0  0  0  0
  3  4  1  0  0  0  0
  4  5  2  0  0  0  0
  4  6  2  0  0  0  0
  6  7  1  0  0  0  0
  7  8  1  0  0  0  0
  4  9  1  0  0  0  0
  9 10  1  0  0  0  0
 10 11  1  0  0  0  0
 11 12  1  0  0  0  0
 12 13  2  0  0  0  0
 12 14  2  0  0  0  0
 14 15  1  0  0  0  0
 15 16  1  0  0  0  0
 12 17  2  0  0  0  0
 17 18  1  0  0  0  0
 18 19  1  0  0  0  0
  1 20  1  0  0  0  0
  1 21  1  0  0  0  0
  1 22  1  0  0  0  0
  2 23  1  0  0  0  0
  2 24  1  0  0  0  0
  7 25  1  0  0  0  0
  7 26  1  0  0  0  0
  8 27  1  0  0  0  0
  8 28  1  0  0  0  0
  8 29  1  0  0  0  0
 10 30  1  0  0  0  0
 10 31  1  0  0  0  0
 15 32  1  0  0  0  0
 15 33  1  0  0  0  0
 16 34  1  0  0  0  0
 16 35  1  0  0  0  0
 16 36  1  0  0  0  0
 18 37  1  0  0  0  0
 18 38  1  0  0  0  0
 19 39  1  0  0  0  0
 19 40  1  0  0  0  0
 19 41  1  0  0  0  0
M  END
