 xtb: 6.7.1 (edcfbbe)
          04092505213D

 41 40  0     0  0            999 V2000
    3.0926   -0.0177   -3.3007 C   0  0  0  0  0  0  0  0  0  0  0  0
    2.1465   -0.8461   -2.4546 C   0  0  0  0  0  0  0  0  0  0  0  0
    2.7545   -1.1683   -1.1887 O   0  0  0  0  0  0  0  0  0  0  0  0
    2.5254   -0.3334    0.1449 P   0  0  0  0  0  0  0  0  0  0  0  0
    2.7695    1.6054    0.0863 S   0  0  0  0  0  0  0  0  0  0  0  0
    3.5808   -0.9953    1.1072 O   0  0  0  0  0  0  0  0  0  0  0  0
    3.6338   -2.4218    1.3781 C   0  0  0  0  0  0  0  0  0  0  0  0
    3.1970   -2.6940    2.8037 C   0  0  0  0  0  0  0  0  0  0  0  0
    0.6224   -1.0230    0.8141 S   0  0  0  0  0  0  0  0  0  0  0  0
    0.0891    0.4920    1.6789 C   0  0  0  0  0  0  0  0  0  0  0  0
   -1.7012    0.5632    1.8329 S   0  0  0  0  0  0  0  0  0  0  0  0
   -2.2211    0.8624   -0.2264 P   0  0  0  0  0  0  0  0  0  0  0  0
   -0.7628    1.2921   -1.4586 S   0  0  0  0  0  0  0  0  0  0  0  0
   -3.2659    2.0359   -0.2121 O   0  0  0  0  0  0  0  0  0  0  0  0
   -4.4551    2.0394    0.6193 C   0  0  0  0  0  0  0  0  0  0  0  0
   -5.6623    1.5756   -0.1692 C   0  0  0  0  0  0  0  0  0  0  0  0
   -3.1367   -0.3954   -0.5598 O   0  0  0  0  0  0  0  0  0  0  0  0
   -2.7159   -1.7695   -0.4747 C   0  0  0  0  0  0  0  0  0  0  0  0
   -1.9351   -2.1971   -1.7009 C   0  0  0  0  0  0  0  0  0  0  0  0
    4.0366   -0.5397   -3.4299 H   0  0  0  0  0  0  0  0  0  0  0  0
    2.6394    0.1618   -4.2701 H   0  0  0  0  0  0  0  0  0  0  0  0
    3.2813    0.9394   -2.8184 H   0  0  0  0  0  0  0  0  0  0  0  0
    1.9400   -1.8133   -2.9169 H   0  0  0  0  0  0  0  0  0  0  0  0
    1.2101   -0.3063   -2.2900 H   0  0  0  0  0  0  0  0  0  0  0  0
    3.0027   -2.9477    0.6590 H   0  0  0  0  0  0  0  0  0  0  0  0
    4.6776   -2.6971    1.2214 H   0  0  0  0  0  0  0  0  0  0  0  0
    2.1440   -2.4563    2.9321 H   0  0  0  0  0  0  0  0  0  0  0  0
    3.3522   -3.7448    3.0266 H   0  0  0  0  0  0  0  0  0  0  0  0
    3.7826   -2.0911    3.4922 H   0  0  0  0  0  0  0  0  0  0  0  0
    0.4561    1.3526    1.1133 H   0  0  0  0  0  0  0  0  0  0  0  0
    0.4816    0.4917    2.6931 H   0  0  0  0  0  0  0  0  0  0  0  0
   -4.2786    1.4052    1.4924 H   0  0  0  0  0  0  0  0  0  0  0  0
   -4.5613    3.0786    0.9354 H   0  0  0  0  0  0  0  0  0  0  0  0
   -5.5317    0.5461   -0.4902 H   0  0  0  0  0  0  0  0  0  0  0  0
   -6.5447    1.6483    0.4588 H   0  0  0  0  0  0  0  0  0  0  0  0
   -5.7943    2.2013   -1.0477 H   0  0  0  0  0  0  0  0  0  0  0  0
   -2.1187   -1.9065    0.4325 H   0  0  0  0  0  0  0  0  0  0  0  0
   -3.6511   -2.3253   -0.3869 H   0  0  0  0  0  0  0  0  0  0  0  0
   -1.7043   -3.2545   -1.6257 H   0  0  0  0  0  0  0  0  0  0  0  0
   -2.5165   -2.0147   -2.6005 H   0  0  0  0  0  0  0  0  0  0  0  0
   -1.0057   -1.6364   -1.7693 H   0  0  0  0  0  0  0  0  0  0  0  0
  1  2  1  0  0  0  0
  2  3  1  0  0  0  0
  3  4  2  0  0  0  0
  4  5  2  0  0  0  0
  4  6  2  0  0  0  0
  6  7  1  0  0  0  0
  7  8  1  0  0  0  0
  4  9  1  0  0  0  0
  9 10  1  0  0  0  0
 10 11  1  0  0  0  0
 11 12  1  0  0  0  0
 12 13  2  0  0  0  0
 12 14  2  0  0  0  0
 14 15  1  0  0  0  0
 15 16  1  0  0  0  0
 12 17  2  0  0  0  0
 17 18  1  0  0  0  0
 18 19  1  0  0  0  0
  1 20  1  0  0  0  0
  1 21  1  0  0  0  0
  1 22  1  0  0  0  0
  2 23  1  0  0  0  0
  2 24  1  0  0  0  0
  7 25  1  0  0  0  0
  7 26  1  0  0  0  0
  8 27  1  0  0  0  0
  8 28  1  0  0  0  0
  8 29  1  0  0  0  0
 10 30  1  0  0  0  0
 10 31  1  0  0  0  0
 15 32  1  0  0  0  0
 15 33  1  0  0  0  0
 16 34  1  0  0  0  0
 16 35  1  0  0  0  0
 16 36  1  0  0  0  0
 18 37  1  0  0  0  0
 18 38  1  0  0  0  0
 19 39  1  0  0  0  0
 19 40  1  0  0  0  0
 19 41  1  0  0  0  0
M  END
