 xtb: 6.7.1 (edcfbbe)
          04092505213D

 41 40  0     0  0            999 V2000
    5.4868   -0.7788   -1.2532 C   0  0  0  0  0  0  0  0  0  0  0  0
    4.1193   -1.1082   -1.8134 C   0  0  0  0  0  0  0  0  0  0  0  0
    3.1461   -1.3075   -0.7679 O   0  0  0  0  0  0  0  0  0  0  0  0
    2.6359   -0.1143    0.1456 P   0  0  0  0  0  0  0  0  0  0  0  0
    2.4850    1.6245   -0.7643 S   0  0  0  0  0  0  0  0  0  0  0  0
    3.6521   -0.1427    1.3652 O   0  0  0  0  0  0  0  0  0  0  0  0
    3.7813    0.9579    2.2823 C   0  0  0  0  0  0  0  0  0  0  0  0
    2.5138    1.1749    3.0829 C   0  0  0  0  0  0  0  0  0  0  0  0
    0.9166   -1.0590    0.9211 S   0  0  0  0  0  0  0  0  0  0  0  0
   -0.0388   -1.1189   -0.6165 C   0  0  0  0  0  0  0  0  0  0  0  0
   -0.7419    0.4961   -1.1065 S   0  0  0  0  0  0  0  0  0  0  0  0
   -2.7384    0.1632   -0.5013 P   0  0  0  0  0  0  0  0  0  0  0  0
   -3.9925    1.6472   -0.7407 S   0  0  0  0  0  0  0  0  0  0  0  0
   -2.6678   -0.4306    0.9784 O   0  0  0  0  0  0  0  0  0  0  0  0
   -2.8234    0.4014    2.1384 C   0  0  0  0  0  0  0  0  0  0  0  0
   -1.5947    1.2501    2.3930 C   0  0  0  0  0  0  0  0  0  0  0  0
   -3.0263   -1.1495   -1.3500 O   0  0  0  0  0  0  0  0  0  0  0  0
   -4.3714   -1.5733   -1.6563 C   0  0  0  0  0  0  0  0  0  0  0  0
   -5.1188   -2.0294   -0.4209 C   0  0  0  0  0  0  0  0  0  0  0  0
    6.2103   -0.7506   -2.0620 H   0  0  0  0  0  0  0  0  0  0  0  0
    5.4613    0.1954   -0.7669 H   0  0  0  0  0  0  0  0  0  0  0  0
    5.7843   -1.5285   -0.5249 H   0  0  0  0  0  0  0  0  0  0  0  0
    4.1207   -2.0557   -2.3542 H   0  0  0  0  0  0  0  0  0  0  0  0
    3.7667   -0.3036   -2.4672 H   0  0  0  0  0  0  0  0  0  0  0  0
    4.6203    0.6727    2.9181 H   0  0  0  0  0  0  0  0  0  0  0  0
    4.0316    1.8573    1.7107 H   0  0  0  0  0  0  0  0  0  0  0  0
    2.2084    0.2492    3.5645 H   0  0  0  0  0  0  0  0  0  0  0  0
    2.6859    1.9365    3.8366 H   0  0  0  0  0  0  0  0  0  0  0  0
    1.7156    1.5102    2.4208 H   0  0  0  0  0  0  0  0  0  0  0  0
   -0.8498   -1.8235   -0.4589 H   0  0  0  0  0  0  0  0  0  0  0  0
    0.6108   -1.4412   -1.4263 H   0  0  0  0  0  0  0  0  0  0  0  0
   -3.7048    1.0352    1.9937 H   0  0  0  0  0  0  0  0  0  0  0  0
   -2.9981   -0.3048    2.9509 H   0  0  0  0  0  0  0  0  0  0  0  0
   -0.7191    0.6161    2.5075 H   0  0  0  0  0  0  0  0  0  0  0  0
   -1.4340    1.9309    1.5562 H   0  0  0  0  0  0  0  0  0  0  0  0
   -1.7390    1.8333    3.2967 H   0  0  0  0  0  0  0  0  0  0  0  0
   -4.8941   -0.7405   -2.1371 H   0  0  0  0  0  0  0  0  0  0  0  0
   -4.2306   -2.3858   -2.3704 H   0  0  0  0  0  0  0  0  0  0  0  0
   -6.0811   -2.4366   -0.7146 H   0  0  0  0  0  0  0  0  0  0  0  0
   -4.5494   -2.7897    0.1071 H   0  0  0  0  0  0  0  0  0  0  0  0
   -5.2821   -1.1833    0.2451 H   0  0  0  0  0  0  0  0  0  0  0  0
  1  2  1  0  0  0  0
  2  3  1  0  0  0  0
  3  4  2  0  0  0  0
  4  5  2  0  0  0  0
  4  6  2  0  0  0  0
  6  7  1  0  0  0  0
  7  8  1  0  0  0  0
  4  9  1  0  0  0  0
  9 10  1  0  0  0  0
 10 11  1  0  0  0  0
 11 12  1  0  0  0  0
 12 13  2  0  0  0  0
 12 14  2  0  0  0  0
 14 15  1  0  0  0  0
 15 16  1  0  0  0  0
 12 17  2  0  0  0  0
 17 18  1  0  0  0  0
 18 19  1  0  0  0  0
  1 20  1  0  0  0  0
  1 21  1  0  0  0  0
  1 22  1  0  0  0  0
  2 23  1  0  0  0  0
  2 24  1  0  0  0  0
  7 25  1  0  0  0  0
  7 26  1  0  0  0  0
  8 27  1  0  0  0  0
  8 28  1  0  0  0  0
  8 29  1  0  0  0  0
 10 30  1  0  0  0  0
 10 31  1  0  0  0  0
 15 32  1  0  0  0  0
 15 33  1  0  0  0  0
 16 34  1  0  0  0  0
 16 35  1  0  0  0  0
 16 36  1  0  0  0  0
 18 37  1  0  0  0  0
 18 38  1  0  0  0  0
 19 39  1  0  0  0  0
 19 40  1  0  0  0  0
 19 41  1  0  0  0  0
M  END
