 xtb: 6.7.1 (edcfbbe)
          04032519583D

 10  9  0     0  0            999 V2000
   -0.6839   -0.6094   -0.3172 C   0  0  0  0  0  0  0  0  0  0  0  0
    0.6941   -0.5695    0.3430 C   0  0  0  0  0  0  0  0  0  0  0  0
    1.4794    0.5013   -0.1264 O   0  0  0  0  0  0  0  0  0  0  0  0
   -1.4081    0.5257    0.1187 O   0  0  0  0  0  0  0  0  0  0  0  0
   -1.1934   -1.5339   -0.0215 H   0  0  0  0  0  0  0  0  0  0  0  0
   -0.5617   -0.5930   -1.4072 H   0  0  0  0  0  0  0  0  0  0  0  0
    1.2454   -1.4804    0.1047 H   0  0  0  0  0  0  0  0  0  0  0  0
    0.5640   -0.4975    1.4307 H   0  0  0  0  0  0  0  0  0  0  0  0
    0.9745    1.3179    0.0021 H   0  0  0  0  0  0  0  0  0  0  0  0
   -2.2815    0.5317   -0.2941 H   0  0  0  0  0  0  0  0  0  0  0  0
  1  2  1  0  0  0  0
  2  3  1  0  0  0  0
  1  4  1  0  0  0  0
  1  5  1  0  0  0  0
  1  6  1  0  0  0  0
  2  7  1  0  0  0  0
  2  8  1  0  0  0  0
  3  9  1  0  0  0  0
  4 10  1  0  0  0  0
M  END
