 xtb: 6.7.1 (edcfbbe)
          04092505203D

 41 40  0     0  0            999 V2000
    5.7468   -0.2237    0.2563 C   0  0  0  0  0  0  0  0  0  0  0  0
    4.4160   -0.6804   -0.3068 C   0  0  0  0  0  0  0  0  0  0  0  0
    3.3770    0.0935    0.3240 O   0  0  0  0  0  0  0  0  0  0  0  0
    1.9167    0.1884   -0.2997 P   0  0  0  0  0  0  0  0  0  0  0  0
    1.8889    0.5974   -2.2214 S   0  0  0  0  0  0  0  0  0  0  0  0
    1.2309    1.2090    0.6949 O   0  0  0  0  0  0  0  0  0  0  0  0
    1.2557    2.6331    0.4801 C   0  0  0  0  0  0  0  0  0  0  0  0
    2.6545    3.1986    0.5928 C   0  0  0  0  0  0  0  0  0  0  0  0
    1.0944   -1.6500    0.2896 S   0  0  0  0  0  0  0  0  0  0  0  0
   -0.2062   -1.8881   -0.9703 C   0  0  0  0  0  0  0  0  0  0  0  0
   -1.8652   -1.9759   -0.2642 S   0  0  0  0  0  0  0  0  0  0  0  0
   -2.1153    0.0867    0.1836 P   0  0  0  0  0  0  0  0  0  0  0  0
   -1.4923    1.3342   -1.1895 S   0  0  0  0  0  0  0  0  0  0  0  0
   -1.4293    0.3448    1.5800 O   0  0  0  0  0  0  0  0  0  0  0  0
   -1.8455   -0.2985    2.8165 C   0  0  0  0  0  0  0  0  0  0  0  0
   -0.8307   -1.3381    3.2466 C   0  0  0  0  0  0  0  0  0  0  0  0
   -3.6573    0.1962    0.5561 O   0  0  0  0  0  0  0  0  0  0  0  0
   -4.6857    0.4251   -0.4244 C   0  0  0  0  0  0  0  0  0  0  0  0
   -4.8471   -0.7404   -1.3784 C   0  0  0  0  0  0  0  0  0  0  0  0
    6.5408   -0.8186   -0.1827 H   0  0  0  0  0  0  0  0  0  0  0  0
    5.9137    0.8242    0.0237 H   0  0  0  0  0  0  0  0  0  0  0  0
    5.7542   -0.3509    1.3348 H   0  0  0  0  0  0  0  0  0  0  0  0
    4.2328   -1.7364   -0.0909 H   0  0  0  0  0  0  0  0  0  0  0  0
    4.3594   -0.5214   -1.3892 H   0  0  0  0  0  0  0  0  0  0  0  0
    0.8255    2.8423   -0.5055 H   0  0  0  0  0  0  0  0  0  0  0  0
    0.5901    3.0210    1.2530 H   0  0  0  0  0  0  0  0  0  0  0  0
    3.2709    2.8193   -0.2214 H   0  0  0  0  0  0  0  0  0  0  0  0
    2.6092    4.2812    0.5267 H   0  0  0  0  0  0  0  0  0  0  0  0
    3.1011    2.9078    1.5400 H   0  0  0  0  0  0  0  0  0  0  0  0
   -0.0307   -2.8467   -1.4513 H   0  0  0  0  0  0  0  0  0  0  0  0
   -0.1477   -1.0682   -1.6915 H   0  0  0  0  0  0  0  0  0  0  0  0
   -1.9057    0.5177    3.5382 H   0  0  0  0  0  0  0  0  0  0  0  0
   -2.8344   -0.7371    2.6741 H   0  0  0  0  0  0  0  0  0  0  0  0
    0.1625   -0.8975    3.2818 H   0  0  0  0  0  0  0  0  0  0  0  0
   -1.0971   -1.7008    4.2343 H   0  0  0  0  0  0  0  0  0  0  0  0
   -0.8127   -2.1755    2.5532 H   0  0  0  0  0  0  0  0  0  0  0  0
   -5.5824    0.5809    0.1772 H   0  0  0  0  0  0  0  0  0  0  0  0
   -4.4409    1.3403   -0.9721 H   0  0  0  0  0  0  0  0  0  0  0  0
   -4.9622   -1.6698   -0.8267 H   0  0  0  0  0  0  0  0  0  0  0  0
   -5.7240   -0.5755   -1.9962 H   0  0  0  0  0  0  0  0  0  0  0  0
   -3.9735   -0.8196   -2.0234 H   0  0  0  0  0  0  0  0  0  0  0  0
  1  2  1  0  0  0  0
  2  3  1  0  0  0  0
  3  4  2  0  0  0  0
  4  5  2  0  0  0  0
  4  6  2  0  0  0  0
  6  7  1  0  0  0  0
  7  8  1  0  0  0  0
  4  9  1  0  0  0  0
  9 10  1  0  0  0  0
 10 11  1  0  0  0  0
 11 12  1  0  0  0  0
 12 13  2  0  0  0  0
 12 14  2  0  0  0  0
 14 15  1  0  0  0  0
 15 16  1  0  0  0  0
 12 17  2  0  0  0  0
 17 18  1  0  0  0  0
 18 19  1  0  0  0  0
  1 20  1  0  0  0  0
  1 21  1  0  0  0  0
  1 22  1  0  0  0  0
  2 23  1  0  0  0  0
  2 24  1  0  0  0  0
  7 25  1  0  0  0  0
  7 26  1  0  0  0  0
  8 27  1  0  0  0  0
  8 28  1  0  0  0  0
  8 29  1  0  0  0  0
 10 30  1  0  0  0  0
 10 31  1  0  0  0  0
 15 32  1  0  0  0  0
 15 33  1  0  0  0  0
 16 34  1  0  0  0  0
 16 35  1  0  0  0  0
 16 36  1  0  0  0  0
 18 37  1  0  0  0  0
 18 38  1  0  0  0  0
 19 39  1  0  0  0  0
 19 40  1  0  0  0  0
 19 41  1  0  0  0  0
M  END
