 xtb: 6.7.1 (edcfbbe)
          04092513593D

 41 40  0     0  0            999 V2000
    0.4982   -2.5442    1.9455 C   0  0  0  0  0  0  0  0  0  0  0  0
    1.2156   -2.2829    0.6380 C   0  0  0  0  0  0  0  0  0  0  0  0
    1.8745   -1.0089    0.7433 O   0  0  0  0  0  0  0  0  0  0  0  0
    2.5149   -0.3350   -0.5524 P   0  0  0  0  0  0  0  0  0  0  0  0
    3.6764   -1.5249   -1.5885 S   0  0  0  0  0  0  0  0  0  0  0  0
    3.1728    0.9711    0.0498 O   0  0  0  0  0  0  0  0  0  0  0  0
    4.5342    0.9675    0.5399 C   0  0  0  0  0  0  0  0  0  0  0  0
    4.6550    0.2233    1.8528 C   0  0  0  0  0  0  0  0  0  0  0  0
    0.8878    0.4667   -1.6378 S   0  0  0  0  0  0  0  0  0  0  0  0
    0.3023    1.7615   -0.4913 C   0  0  0  0  0  0  0  0  0  0  0  0
   -0.4739    1.1383    1.0140 S   0  0  0  0  0  0  0  0  0  0  0  0
   -2.2559    0.4152    0.1344 P   0  0  0  0  0  0  0  0  0  0  0  0
   -2.9746    1.4425   -1.3805 S   0  0  0  0  0  0  0  0  0  0  0  0
   -3.2079    0.1744    1.3831 O   0  0  0  0  0  0  0  0  0  0  0  0
   -3.4779    1.1233    2.4327 C   0  0  0  0  0  0  0  0  0  0  0  0
   -4.0855    2.4156    1.9260 C   0  0  0  0  0  0  0  0  0  0  0  0
   -1.8621   -1.0808   -0.2259 O   0  0  0  0  0  0  0  0  0  0  0  0
   -2.4729   -1.8204   -1.2977 C   0  0  0  0  0  0  0  0  0  0  0  0
   -3.8484   -2.3216   -0.9096 C   0  0  0  0  0  0  0  0  0  0  0  0
   -0.2572   -1.7799    2.1104 H   0  0  0  0  0  0  0  0  0  0  0  0
    0.0201   -3.5170    1.9016 H   0  0  0  0  0  0  0  0  0  0  0  0
    1.2065   -2.5242    2.7680 H   0  0  0  0  0  0  0  0  0  0  0  0
    0.5116   -2.2480   -0.2006 H   0  0  0  0  0  0  0  0  0  0  0  0
    1.9729   -3.0436    0.4242 H   0  0  0  0  0  0  0  0  0  0  0  0
    5.1766    0.5165   -0.2232 H   0  0  0  0  0  0  0  0  0  0  0  0
    4.7744    2.0257    0.6505 H   0  0  0  0  0  0  0  0  0  0  0  0
    4.4628   -0.8372    1.6985 H   0  0  0  0  0  0  0  0  0  0  0  0
    5.6610    0.3461    2.2425 H   0  0  0  0  0  0  0  0  0  0  0  0
    3.9379    0.6103    2.5717 H   0  0  0  0  0  0  0  0  0  0  0  0
   -0.4305    2.3298   -1.0664 H   0  0  0  0  0  0  0  0  0  0  0  0
    1.1405    2.3816   -0.1881 H   0  0  0  0  0  0  0  0  0  0  0  0
   -4.1706    0.5895    3.0859 H   0  0  0  0  0  0  0  0  0  0  0  0
   -2.5435    1.3199    2.9657 H   0  0  0  0  0  0  0  0  0  0  0  0
   -4.9841    2.2146    1.3479 H   0  0  0  0  0  0  0  0  0  0  0  0
   -4.3393    3.0459    2.7728 H   0  0  0  0  0  0  0  0  0  0  0  0
   -3.3777    2.9450    1.2903 H   0  0  0  0  0  0  0  0  0  0  0  0
   -2.5266   -1.1788   -2.1838 H   0  0  0  0  0  0  0  0  0  0  0  0
   -1.7826   -2.6446   -1.4862 H   0  0  0  0  0  0  0  0  0  0  0  0
   -4.2442   -2.9384   -1.7108 H   0  0  0  0  0  0  0  0  0  0  0  0
   -3.7925   -2.9069    0.0040 H   0  0  0  0  0  0  0  0  0  0  0  0
   -4.5162   -1.4768   -0.7467 H   0  0  0  0  0  0  0  0  0  0  0  0
  1  2  1  0  0  0  0
  2  3  1  0  0  0  0
  3  4  1  0  0  0  0
  4  5  2  0  0  0  0
  4  6  2  0  0  0  0
  6  7  1  0  0  0  0
  7  8  1  0  0  0  0
  4  9  1  0  0  0  0
  9 10  1  0  0  0  0
 10 11  1  0  0  0  0
 11 12  1  0  0  0  0
 12 13  2  0  0  0  0
 12 14  2  0  0  0  0
 14 15  1  0  0  0  0
 15 16  1  0  0  0  0
 12 17  2  0  0  0  0
 17 18  1  0  0  0  0
 18 19  1  0  0  0  0
  1 20  1  0  0  0  0
  1 21  1  0  0  0  0
  1 22  1  0  0  0  0
  2 23  1  0  0  0  0
  2 24  1  0  0  0  0
  7 25  1  0  0  0  0
  7 26  1  0  0  0  0
  8 27  1  0  0  0  0
  8 28  1  0  0  0  0
  8 29  1  0  0  0  0
 10 30  1  0  0  0  0
 10 31  1  0  0  0  0
 15 32  1  0  0  0  0
 15 33  1  0  0  0  0
 16 34  1  0  0  0  0
 16 35  1  0  0  0  0
 16 36  1  0  0  0  0
 18 37  1  0  0  0  0
 18 38  1  0  0  0  0
 19 39  1  0  0  0  0
 19 40  1  0  0  0  0
 19 41  1  0  0  0  0
M  END
