 xtb: 6.7.1 (edcfbbe)
          04092507313D

 38 37  0     0  0            999 V2000
    3.5215   -3.9163    0.0507 C   0  0  0  0  0  0  0  0  0  0  0  0
    3.8841   -2.9572   -1.0714 C   0  0  0  0  0  0  0  0  0  0  0  0
    2.6995   -2.3783   -1.6586 O   0  0  0  0  0  0  0  0  0  0  0  0
    2.1820   -1.3051   -1.1083 C   0  0  0  0  0  0  0  0  0  0  0  0
    2.6454   -0.7275   -0.1444 O   0  0  0  0  0  0  0  0  0  0  0  0
    0.9091   -0.8752   -1.8018 C   0  0  0  0  0  0  0  0  0  0  0  0
    0.5866    0.5888   -1.5025 C   0  0  0  0  0  0  0  0  0  0  0  0
    1.0752    1.2682   -2.2007 H   0  0  0  0  0  0  0  0  0  0  0  0
    0.9402    0.9859   -0.0838 C   0  0  0  0  0  0  0  0  0  0  0  0
    0.3093    0.5342    0.8605 O   0  0  0  0  0  0  0  0  0  0  0  0
    1.8449    1.9162   -0.0154 O   0  0  0  0  0  0  0  0  0  0  0  0
    2.2155    2.4188    1.2880 C   0  0  0  0  0  0  0  0  0  0  0  0
    1.2473    3.4945    1.7523 C   0  0  0  0  0  0  0  0  0  0  0  0
   -1.2089    0.8987   -1.6277 S   0  0  0  0  0  0  0  0  0  0  0  0
   -1.9804    0.2638    0.2525 P   0  0  0  0  0  0  0  0  0  0  0  0
   -2.2180    1.4004    1.8433 S   0  0  0  0  0  0  0  0  0  0  0  0
   -3.3939    0.0893   -0.5032 O   0  0  0  0  0  0  0  0  0  0  0  0
   -4.6145   -0.1594    0.1949 C   0  0  0  0  0  0  0  0  0  0  0  0
   -1.6550   -1.2865    0.5287 O   0  0  0  0  0  0  0  0  0  0  0  0
   -0.9513   -1.7793    1.6659 C   0  0  0  0  0  0  0  0  0  0  0  0
    2.8382   -4.6784   -0.3133 H   0  0  0  0  0  0  0  0  0  0  0  0
    4.4236   -4.3920    0.4205 H   0  0  0  0  0  0  0  0  0  0  0  0
    3.0490   -3.3769    0.8690 H   0  0  0  0  0  0  0  0  0  0  0  0
    4.3673   -3.4768   -1.8984 H   0  0  0  0  0  0  0  0  0  0  0  0
    4.5205   -2.1486   -0.7014 H   0  0  0  0  0  0  0  0  0  0  0  0
    0.1109   -1.5190   -1.4186 H   0  0  0  0  0  0  0  0  0  0  0  0
    0.9840   -1.0481   -2.8740 H   0  0  0  0  0  0  0  0  0  0  0  0
    2.2367    1.5792    1.9870 H   0  0  0  0  0  0  0  0  0  0  0  0
    3.2184    2.8186    1.1406 H   0  0  0  0  0  0  0  0  0  0  0  0
    0.2525    3.0774    1.9009 H   0  0  0  0  0  0  0  0  0  0  0  0
    1.5945    3.9036    2.6951 H   0  0  0  0  0  0  0  0  0  0  0  0
    1.1883    4.2905    1.0151 H   0  0  0  0  0  0  0  0  0  0  0  0
   -4.6608    0.4469    1.1028 H   0  0  0  0  0  0  0  0  0  0  0  0
   -4.6858   -1.2159    0.4521 H   0  0  0  0  0  0  0  0  0  0  0  0
   -5.4110    0.1229   -0.4892 H   0  0  0  0  0  0  0  0  0  0  0  0
   -1.0935   -1.1097    2.5157 H   0  0  0  0  0  0  0  0  0  0  0  0
    0.1131   -1.8488    1.4438 H   0  0  0  0  0  0  0  0  0  0  0  0
   -1.3702   -2.7613    1.8739 H   0  0  0  0  0  0  0  0  0  0  0  0
  1  2  1  0  0  0  0
  2  3  1  0  0  0  0
  3  4  4  0  0  0  0
  4  5  2  0  0  0  0
  4  6  1  0  0  0  0
  6  7  1  0  0  0  0
  7  8  1  0  0  0  0
  7  9  1  0  0  0  0
  9 10  2  0  0  0  0
  9 11  4  0  0  0  0
 11 12  1  0  0  0  0
 12 13  1  0  0  0  0
  7 14  1  0  0  0  0
 14 15  1  0  0  0  0
 15 16  2  0  0  0  0
 15 17  1  0  0  0  0
 17 18  1  0  0  0  0
 15 19  1  0  0  0  0
 19 20  1  0  0  0  0
  1 21  1  0  0  0  0
  1 22  1  0  0  0  0
  1 23  1  0  0  0  0
  2 24  1  0  0  0  0
  2 25  1  0  0  0  0
  6 26  1  0  0  0  0
  6 27  1  0  0  0  0
 12 28  1  0  0  0  0
 12 29  1  0  0  0  0
 13 30  1  0  0  0  0
 13 31  1  0  0  0  0
 13 32  1  0  0  0  0
 18 33  1  0  0  0  0
 18 34  1  0  0  0  0
 18 35  1  0  0  0  0
 20 36  1  0  0  0  0
 20 37  1  0  0  0  0
 20 38  1  0  0  0  0
M  END
