 xtb: 6.7.1 (edcfbbe)
          04092505213D

 41 40  0     0  0            999 V2000
    2.0822   -2.0510   -2.6185 C   0  0  0  0  0  0  0  0  0  0  0  0
    2.1766   -2.2814   -1.1228 C   0  0  0  0  0  0  0  0  0  0  0  0
    2.9618   -1.2432   -0.5015 O   0  0  0  0  0  0  0  0  0  0  0  0
    2.2866    0.0234    0.1864 P   0  0  0  0  0  0  0  0  0  0  0  0
    1.1264    1.1308   -0.9385 S   0  0  0  0  0  0  0  0  0  0  0  0
    3.5299    0.8415    0.6917 O   0  0  0  0  0  0  0  0  0  0  0  0
    4.5533    0.2899    1.5602 C   0  0  0  0  0  0  0  0  0  0  0  0
    5.7260   -0.2285    0.7539 C   0  0  0  0  0  0  0  0  0  0  0  0
    1.4135   -0.8190    1.9484 S   0  0  0  0  0  0  0  0  0  0  0  0
   -0.2723   -0.1900    1.8381 C   0  0  0  0  0  0  0  0  0  0  0  0
   -1.2304   -0.9938    0.5150 S   0  0  0  0  0  0  0  0  0  0  0  0
   -2.2810    0.6894   -0.2719 P   0  0  0  0  0  0  0  0  0  0  0  0
   -1.9615    2.3787    0.6694 S   0  0  0  0  0  0  0  0  0  0  0  0
   -3.7865    0.1670   -0.3284 O   0  0  0  0  0  0  0  0  0  0  0  0
   -4.5056   -0.4363    0.7610 C   0  0  0  0  0  0  0  0  0  0  0  0
   -4.7309    0.5187    1.9154 C   0  0  0  0  0  0  0  0  0  0  0  0
   -1.9766    0.8545   -1.8048 O   0  0  0  0  0  0  0  0  0  0  0  0
   -2.4379   -0.0185   -2.8660 C   0  0  0  0  0  0  0  0  0  0  0  0
   -1.9429   -1.4402   -2.7086 C   0  0  0  0  0  0  0  0  0  0  0  0
    1.5972   -1.0972   -2.8189 H   0  0  0  0  0  0  0  0  0  0  0  0
    3.0758   -2.0286   -3.0570 H   0  0  0  0  0  0  0  0  0  0  0  0
    1.5062   -2.8517   -3.0714 H   0  0  0  0  0  0  0  0  0  0  0  0
    2.7072   -3.2077   -0.8951 H   0  0  0  0  0  0  0  0  0  0  0  0
    1.1826   -2.3118   -0.6645 H   0  0  0  0  0  0  0  0  0  0  0  0
    4.8458    1.1277    2.1955 H   0  0  0  0  0  0  0  0  0  0  0  0
    4.1087   -0.5003    2.1717 H   0  0  0  0  0  0  0  0  0  0  0  0
    6.1215    0.5627    0.1228 H   0  0  0  0  0  0  0  0  0  0  0  0
    6.5013   -0.5655    1.4349 H   0  0  0  0  0  0  0  0  0  0  0  0
    5.4150   -1.0567    0.1237 H   0  0  0  0  0  0  0  0  0  0  0  0
   -0.2719    0.8874    1.6514 H   0  0  0  0  0  0  0  0  0  0  0  0
   -0.7307   -0.4233    2.7961 H   0  0  0  0  0  0  0  0  0  0  0  0
   -5.4511   -0.7375    0.3061 H   0  0  0  0  0  0  0  0  0  0  0  0
   -3.9547   -1.3221    1.0908 H   0  0  0  0  0  0  0  0  0  0  0  0
   -5.2310    1.4196    1.5686 H   0  0  0  0  0  0  0  0  0  0  0  0
   -5.3431    0.0338    2.6688 H   0  0  0  0  0  0  0  0  0  0  0  0
   -3.7803    0.8095    2.3591 H   0  0  0  0  0  0  0  0  0  0  0  0
   -3.5287    0.0214   -2.8867 H   0  0  0  0  0  0  0  0  0  0  0  0
   -2.0295    0.4516   -3.7622 H   0  0  0  0  0  0  0  0  0  0  0  0
   -2.3804   -1.9017   -1.8245 H   0  0  0  0  0  0  0  0  0  0  0  0
   -2.2270   -2.0133   -3.5855 H   0  0  0  0  0  0  0  0  0  0  0  0
   -0.8606   -1.4489   -2.6092 H   0  0  0  0  0  0  0  0  0  0  0  0
  1  2  1  0  0  0  0
  2  3  1  0  0  0  0
  3  4  2  0  0  0  0
  4  5  2  0  0  0  0
  4  6  2  0  0  0  0
  6  7  1  0  0  0  0
  7  8  1  0  0  0  0
  4  9  1  0  0  0  0
  9 10  1  0  0  0  0
 10 11  1  0  0  0  0
 11 12  1  0  0  0  0
 12 13  2  0  0  0  0
 12 14  2  0  0  0  0
 14 15  1  0  0  0  0
 15 16  1  0  0  0  0
 12 17  2  0  0  0  0
 17 18  1  0  0  0  0
 18 19  1  0  0  0  0
  1 20  1  0  0  0  0
  1 21  1  0  0  0  0
  1 22  1  0  0  0  0
  2 23  1  0  0  0  0
  2 24  1  0  0  0  0
  7 25  1  0  0  0  0
  7 26  1  0  0  0  0
  8 27  1  0  0  0  0
  8 28  1  0  0  0  0
  8 29  1  0  0  0  0
 10 30  1  0  0  0  0
 10 31  1  0  0  0  0
 15 32  1  0  0  0  0
 15 33  1  0  0  0  0
 16 34  1  0  0  0  0
 16 35  1  0  0  0  0
 16 36  1  0  0  0  0
 18 37  1  0  0  0  0
 18 38  1  0  0  0  0
 19 39  1  0  0  0  0
 19 40  1  0  0  0  0
 19 41  1  0  0  0  0
M  END
