 xtb: 6.7.1 (edcfbbe)
          04092505203D

 41 40  0     0  0            999 V2000
    5.7486   -0.2129    0.2402 C   0  0  0  0  0  0  0  0  0  0  0  0
    4.4151   -0.6864   -0.3020 C   0  0  0  0  0  0  0  0  0  0  0  0
    3.3771    0.0900    0.3275 O   0  0  0  0  0  0  0  0  0  0  0  0
    1.9169    0.1862   -0.2963 P   0  0  0  0  0  0  0  0  0  0  0  0
    1.8899    0.5886   -2.2194 S   0  0  0  0  0  0  0  0  0  0  0  0
    1.2337    1.2112    0.6956 O   0  0  0  0  0  0  0  0  0  0  0  0
    1.2609    2.6346    0.4763 C   0  0  0  0  0  0  0  0  0  0  0  0
    2.6614    3.1975    0.5818 C   0  0  0  0  0  0  0  0  0  0  0  0
    1.0905   -1.6486    0.2988 S   0  0  0  0  0  0  0  0  0  0  0  0
   -0.2063   -1.8913   -0.9642 C   0  0  0  0  0  0  0  0  0  0  0  0
   -1.8674   -1.9753   -0.2629 S   0  0  0  0  0  0  0  0  0  0  0  0
   -2.1145    0.0881    0.1825 P   0  0  0  0  0  0  0  0  0  0  0  0
   -1.4878    1.3330   -1.1914 S   0  0  0  0  0  0  0  0  0  0  0  0
   -1.4296    0.3472    1.5792 O   0  0  0  0  0  0  0  0  0  0  0  0
   -1.8494   -0.2905    2.8175 C   0  0  0  0  0  0  0  0  0  0  0  0
   -0.8466   -1.3426    3.2456 C   0  0  0  0  0  0  0  0  0  0  0  0
   -3.6567    0.2009    0.5527 O   0  0  0  0  0  0  0  0  0  0  0  0
   -4.6832    0.4301   -0.4298 C   0  0  0  0  0  0  0  0  0  0  0  0
   -4.8470   -0.7378   -1.3803 C   0  0  0  0  0  0  0  0  0  0  0  0
    5.9074    0.8318   -0.0119 H   0  0  0  0  0  0  0  0  0  0  0  0
    5.7675   -0.3216    1.3205 H   0  0  0  0  0  0  0  0  0  0  0  0
    6.5417   -0.8107   -0.1966 H   0  0  0  0  0  0  0  0  0  0  0  0
    4.2407   -1.7400   -0.0680 H   0  0  0  0  0  0  0  0  0  0  0  0
    4.3468   -0.5442   -1.3861 H   0  0  0  0  0  0  0  0  0  0  0  0
    0.8273    2.8418   -0.5081 H   0  0  0  0  0  0  0  0  0  0  0  0
    0.5993    3.0263    1.2508 H   0  0  0  0  0  0  0  0  0  0  0  0
    3.2735    2.8150   -0.2342 H   0  0  0  0  0  0  0  0  0  0  0  0
    2.6180    4.2801    0.5133 H   0  0  0  0  0  0  0  0  0  0  0  0
    3.1115    2.9079    1.5277 H   0  0  0  0  0  0  0  0  0  0  0  0
   -0.0298   -2.8520   -1.4406 H   0  0  0  0  0  0  0  0  0  0  0  0
   -0.1450   -1.0744   -1.6885 H   0  0  0  0  0  0  0  0  0  0  0  0
   -1.8968    0.5271    3.5385 H   0  0  0  0  0  0  0  0  0  0  0  0
   -2.8442   -0.7166    2.6786 H   0  0  0  0  0  0  0  0  0  0  0  0
    0.1521   -0.9144    3.2787 H   0  0  0  0  0  0  0  0  0  0  0  0
   -1.1154   -1.7018    4.2339 H   0  0  0  0  0  0  0  0  0  0  0  0
   -0.8403   -2.1803    2.5524 H   0  0  0  0  0  0  0  0  0  0  0  0
   -5.5801    0.5907    0.1702 H   0  0  0  0  0  0  0  0  0  0  0  0
   -4.4347    1.3429   -0.9800 H   0  0  0  0  0  0  0  0  0  0  0  0
   -3.9735   -0.8212   -2.0248 H   0  0  0  0  0  0  0  0  0  0  0  0
   -4.9646   -1.6653   -0.8258 H   0  0  0  0  0  0  0  0  0  0  0  0
   -5.7234   -0.5727   -1.9988 H   0  0  0  0  0  0  0  0  0  0  0  0
  1  2  1  0  0  0  0
  2  3  1  0  0  0  0
  3  4  2  0  0  0  0
  4  5  2  0  0  0  0
  4  6  2  0  0  0  0
  6  7  1  0  0  0  0
  7  8  1  0  0  0  0
  4  9  1  0  0  0  0
  9 10  1  0  0  0  0
 10 11  1  0  0  0  0
 11 12  1  0  0  0  0
 12 13  2  0  0  0  0
 12 14  2  0  0  0  0
 14 15  1  0  0  0  0
 15 16  1  0  0  0  0
 12 17  2  0  0  0  0
 17 18  1  0  0  0  0
 18 19  1  0  0  0  0
  1 20  1  0  0  0  0
  1 21  1  0  0  0  0
  1 22  1  0  0  0  0
  2 23  1  0  0  0  0
  2 24  1  0  0  0  0
  7 25  1  0  0  0  0
  7 26  1  0  0  0  0
  8 27  1  0  0  0  0
  8 28  1  0  0  0  0
  8 29  1  0  0  0  0
 10 30  1  0  0  0  0
 10 31  1  0  0  0  0
 15 32  1  0  0  0  0
 15 33  1  0  0  0  0
 16 34  1  0  0  0  0
 16 35  1  0  0  0  0
 16 36  1  0  0  0  0
 18 37  1  0  0  0  0
 18 38  1  0  0  0  0
 19 39  1  0  0  0  0
 19 40  1  0  0  0  0
 19 41  1  0  0  0  0
M  END
