 xtb: 6.7.1 (edcfbbe)
          04092505213D

 41 40  0     0  0            999 V2000
    4.1721   -1.4422   -2.2262 C   0  0  0  0  0  0  0  0  0  0  0  0
    4.6290   -1.2926   -0.7899 C   0  0  0  0  0  0  0  0  0  0  0  0
    3.5269   -1.2076    0.1329 O   0  0  0  0  0  0  0  0  0  0  0  0
    2.5178    0.0210    0.1452 P   0  0  0  0  0  0  0  0  0  0  0  0
    3.3113    1.7814   -0.1463 S   0  0  0  0  0  0  0  0  0  0  0  0
    1.8505   -0.0912    1.5698 O   0  0  0  0  0  0  0  0  0  0  0  0
    1.2581   -1.3020    2.0968 C   0  0  0  0  0  0  0  0  0  0  0  0
    2.2501   -2.0638    2.9512 C   0  0  0  0  0  0  0  0  0  0  0  0
    0.9975   -0.5660   -1.2407 S   0  0  0  0  0  0  0  0  0  0  0  0
    0.3048    1.0855   -1.4714 C   0  0  0  0  0  0  0  0  0  0  0  0
   -0.5738    1.6861   -0.0043 S   0  0  0  0  0  0  0  0  0  0  0  0
   -2.2019    0.3337   -0.1329 P   0  0  0  0  0  0  0  0  0  0  0  0
   -2.7699   -0.0697   -1.9706 S   0  0  0  0  0  0  0  0  0  0  0  0
   -3.3253    0.9758    0.7864 O   0  0  0  0  0  0  0  0  0  0  0  0
   -4.2432    1.9750    0.2989 C   0  0  0  0  0  0  0  0  0  0  0  0
   -5.5440    1.8349    1.0643 C   0  0  0  0  0  0  0  0  0  0  0  0
   -1.6763   -0.8492    0.7771 O   0  0  0  0  0  0  0  0  0  0  0  0
   -2.5383   -1.8008    1.4470 C   0  0  0  0  0  0  0  0  0  0  0  0
   -3.3875   -2.5931    0.4760 C   0  0  0  0  0  0  0  0  0  0  0  0
    3.4645   -2.2627   -2.3169 H   0  0  0  0  0  0  0  0  0  0  0  0
    3.6908   -0.5251   -2.5625 H   0  0  0  0  0  0  0  0  0  0  0  0
    5.0337   -1.6370   -2.8566 H   0  0  0  0  0  0  0  0  0  0  0  0
    5.2431   -0.3945   -0.6736 H   0  0  0  0  0  0  0  0  0  0  0  0
    5.1835   -2.1690   -0.4512 H   0  0  0  0  0  0  0  0  0  0  0  0
    0.4098   -0.9491    2.6871 H   0  0  0  0  0  0  0  0  0  0  0  0
    0.8978   -1.9111    1.2625 H   0  0  0  0  0  0  0  0  0  0  0  0
    2.6345   -1.4183    3.7362 H   0  0  0  0  0  0  0  0  0  0  0  0
    1.7510   -2.9169    3.4002 H   0  0  0  0  0  0  0  0  0  0  0  0
    3.0812   -2.4122    2.3444 H   0  0  0  0  0  0  0  0  0  0  0  0
   -0.3890    1.0231   -2.3102 H   0  0  0  0  0  0  0  0  0  0  0  0
    1.1092    1.7954   -1.6649 H   0  0  0  0  0  0  0  0  0  0  0  0
   -3.7869    2.9544    0.4611 H   0  0  0  0  0  0  0  0  0  0  0  0
   -4.3923    1.8197   -0.7751 H   0  0  0  0  0  0  0  0  0  0  0  0
   -6.2330    2.6058    0.7354 H   0  0  0  0  0  0  0  0  0  0  0  0
   -5.9861    0.8596    0.8801 H   0  0  0  0  0  0  0  0  0  0  0  0
   -5.3625    1.9463    2.1294 H   0  0  0  0  0  0  0  0  0  0  0  0
   -1.8375   -2.4450    1.9808 H   0  0  0  0  0  0  0  0  0  0  0  0
   -3.1608   -1.2545    2.1586 H   0  0  0  0  0  0  0  0  0  0  0  0
   -4.0840   -1.9343   -0.0407 H   0  0  0  0  0  0  0  0  0  0  0  0
   -2.7594   -3.0775   -0.2681 H   0  0  0  0  0  0  0  0  0  0  0  0
   -3.9487   -3.3465    1.0197 H   0  0  0  0  0  0  0  0  0  0  0  0
  1  2  1  0  0  0  0
  2  3  1  0  0  0  0
  3  4  2  0  0  0  0
  4  5  2  0  0  0  0
  4  6  2  0  0  0  0
  6  7  1  0  0  0  0
  7  8  1  0  0  0  0
  4  9  1  0  0  0  0
  9 10  1  0  0  0  0
 10 11  1  0  0  0  0
 11 12  1  0  0  0  0
 12 13  2  0  0  0  0
 12 14  2  0  0  0  0
 14 15  1  0  0  0  0
 15 16  1  0  0  0  0
 12 17  2  0  0  0  0
 17 18  1  0  0  0  0
 18 19  1  0  0  0  0
  1 20  1  0  0  0  0
  1 21  1  0  0  0  0
  1 22  1  0  0  0  0
  2 23  1  0  0  0  0
  2 24  1  0  0  0  0
  7 25  1  0  0  0  0
  7 26  1  0  0  0  0
  8 27  1  0  0  0  0
  8 28  1  0  0  0  0
  8 29  1  0  0  0  0
 10 30  1  0  0  0  0
 10 31  1  0  0  0  0
 15 32  1  0  0  0  0
 15 33  1  0  0  0  0
 16 34  1  0  0  0  0
 16 35  1  0  0  0  0
 16 36  1  0  0  0  0
 18 37  1  0  0  0  0
 18 38  1  0  0  0  0
 19 39  1  0  0  0  0
 19 40  1  0  0  0  0
 19 41  1  0  0  0  0
M  END
