 xtb: 6.7.1 (edcfbbe)
          04092505213D

 41 40  0     0  0            999 V2000
    4.6616   -1.6967   -1.6442 C   0  0  0  0  0  0  0  0  0  0  0  0
    4.7127   -0.3256   -1.0029 C   0  0  0  0  0  0  0  0  0  0  0  0
    3.7077   -0.1739    0.0148 O   0  0  0  0  0  0  0  0  0  0  0  0
    2.1657   -0.0455   -0.3352 P   0  0  0  0  0  0  0  0  0  0  0  0
    1.7731    0.9657   -1.9764 S   0  0  0  0  0  0  0  0  0  0  0  0
    1.5536    0.4382    1.0444 O   0  0  0  0  0  0  0  0  0  0  0  0
    2.1082    1.4909    1.8640 C   0  0  0  0  0  0  0  0  0  0  0  0
    2.2879    2.7872    1.1040 C   0  0  0  0  0  0  0  0  0  0  0  0
    1.4296   -2.0251   -0.3611 S   0  0  0  0  0  0  0  0  0  0  0  0
   -0.2925   -1.6493   -0.7734 C   0  0  0  0  0  0  0  0  0  0  0  0
   -1.3282   -1.4788    0.7169 S   0  0  0  0  0  0  0  0  0  0  0  0
   -2.2724    0.3734    0.2496 P   0  0  0  0  0  0  0  0  0  0  0  0
   -1.1734    1.9509   -0.0938 S   0  0  0  0  0  0  0  0  0  0  0  0
   -3.3304    0.5231    1.4277 O   0  0  0  0  0  0  0  0  0  0  0  0
   -3.0105    1.1938    2.6606 C   0  0  0  0  0  0  0  0  0  0  0  0
   -1.9445    0.4598    3.4475 C   0  0  0  0  0  0  0  0  0  0  0  0
   -3.1843    0.0362   -0.9930 O   0  0  0  0  0  0  0  0  0  0  0  0
   -4.2197   -0.9824   -0.9535 C   0  0  0  0  0  0  0  0  0  0  0  0
   -4.2990   -1.6333   -2.3189 C   0  0  0  0  0  0  0  0  0  0  0  0
    4.6944   -2.4715   -0.8827 H   0  0  0  0  0  0  0  0  0  0  0  0
    3.7397   -1.8049   -2.2138 H   0  0  0  0  0  0  0  0  0  0  0  0
    5.5066   -1.8114   -2.3153 H   0  0  0  0  0  0  0  0  0  0  0  0
    4.5651    0.4566   -1.7548 H   0  0  0  0  0  0  0  0  0  0  0  0
    5.6509   -0.1614   -0.4714 H   0  0  0  0  0  0  0  0  0  0  0  0
    1.3772    1.6021    2.6669 H   0  0  0  0  0  0  0  0  0  0  0  0
    3.0586    1.1353    2.2675 H   0  0  0  0  0  0  0  0  0  0  0  0
    1.3432    3.0940    0.6578 H   0  0  0  0  0  0  0  0  0  0  0  0
    2.6337    3.5606    1.7822 H   0  0  0  0  0  0  0  0  0  0  0  0
    3.0183    2.6574    0.3059 H   0  0  0  0  0  0  0  0  0  0  0  0
   -0.6632   -2.4901   -1.3532 H   0  0  0  0  0  0  0  0  0  0  0  0
   -0.3291   -0.7196   -1.3480 H   0  0  0  0  0  0  0  0  0  0  0  0
   -2.6827    2.2107    2.4227 H   0  0  0  0  0  0  0  0  0  0  0  0
   -3.9610    1.2228    3.1948 H   0  0  0  0  0  0  0  0  0  0  0  0
   -1.0036    0.4770    2.8976 H   0  0  0  0  0  0  0  0  0  0  0  0
   -1.8031    0.9487    4.4060 H   0  0  0  0  0  0  0  0  0  0  0  0
   -2.2348   -0.5757    3.6069 H   0  0  0  0  0  0  0  0  0  0  0  0
   -3.9721   -1.7080   -0.1737 H   0  0  0  0  0  0  0  0  0  0  0  0
   -5.1516   -0.4776   -0.6945 H   0  0  0  0  0  0  0  0  0  0  0  0
   -5.1048   -2.3601   -2.3192 H   0  0  0  0  0  0  0  0  0  0  0  0
   -4.4922   -0.8809   -3.0783 H   0  0  0  0  0  0  0  0  0  0  0  0
   -3.3647   -2.1348   -2.5567 H   0  0  0  0  0  0  0  0  0  0  0  0
  1  2  1  0  0  0  0
  2  3  1  0  0  0  0
  3  4  2  0  0  0  0
  4  5  2  0  0  0  0
  4  6  2  0  0  0  0
  6  7  1  0  0  0  0
  7  8  1  0  0  0  0
  4  9  1  0  0  0  0
  9 10  1  0  0  0  0
 10 11  1  0  0  0  0
 11 12  1  0  0  0  0
 12 13  2  0  0  0  0
 12 14  2  0  0  0  0
 14 15  1  0  0  0  0
 15 16  1  0  0  0  0
 12 17  2  0  0  0  0
 17 18  1  0  0  0  0
 18 19  1  0  0  0  0
  1 20  1  0  0  0  0
  1 21  1  0  0  0  0
  1 22  1  0  0  0  0
  2 23  1  0  0  0  0
  2 24  1  0  0  0  0
  7 25  1  0  0  0  0
  7 26  1  0  0  0  0
  8 27  1  0  0  0  0
  8 28  1  0  0  0  0
  8 29  1  0  0  0  0
 10 30  1  0  0  0  0
 10 31  1  0  0  0  0
 15 32  1  0  0  0  0
 15 33  1  0  0  0  0
 16 34  1  0  0  0  0
 16 35  1  0  0  0  0
 16 36  1  0  0  0  0
 18 37  1  0  0  0  0
 18 38  1  0  0  0  0
 19 39  1  0  0  0  0
 19 40  1  0  0  0  0
 19 41  1  0  0  0  0
M  END
