 xtb: 6.7.1 (edcfbbe)
          04092505213D

 41 40  0     0  0            999 V2000
    4.7810    0.0072   -1.3965 C   0  0  0  0  0  0  0  0  0  0  0  0
    4.5942    0.0376    0.1070 C   0  0  0  0  0  0  0  0  0  0  0  0
    3.3146   -0.4757    0.4982 O   0  0  0  0  0  0  0  0  0  0  0  0
    1.9517    0.2958    0.1570 P   0  0  0  0  0  0  0  0  0  0  0  0
    2.1348    2.2338    0.4090 S   0  0  0  0  0  0  0  0  0  0  0  0
    0.9419   -0.4629    1.1118 O   0  0  0  0  0  0  0  0  0  0  0  0
    0.9144   -0.1733    2.5260 C   0  0  0  0  0  0  0  0  0  0  0  0
    1.7284   -1.1878    3.3022 C   0  0  0  0  0  0  0  0  0  0  0  0
    1.3774   -0.4266   -1.7477 S   0  0  0  0  0  0  0  0  0  0  0  0
    0.1617   -1.7340   -1.3847 C   0  0  0  0  0  0  0  0  0  0  0  0
   -1.5201   -1.3257   -1.9461 S   0  0  0  0  0  0  0  0  0  0  0  0
   -2.1713   -0.0152   -0.4315 P   0  0  0  0  0  0  0  0  0  0  0  0
   -3.9969    0.6551   -0.6462 S   0  0  0  0  0  0  0  0  0  0  0  0
   -1.0087    1.0770   -0.4397 O   0  0  0  0  0  0  0  0  0  0  0  0
   -1.3104    2.4589   -0.1528 C   0  0  0  0  0  0  0  0  0  0  0  0
   -1.5476    2.6830    1.3245 C   0  0  0  0  0  0  0  0  0  0  0  0
   -1.8932   -0.7565    0.9559 O   0  0  0  0  0  0  0  0  0  0  0  0
   -2.8927   -1.5911    1.5683 C   0  0  0  0  0  0  0  0  0  0  0  0
   -3.0596   -2.9109    0.8419 C   0  0  0  0  0  0  0  0  0  0  0  0
    5.7839    0.3408   -1.6427 H   0  0  0  0  0  0  0  0  0  0  0  0
    4.6289   -0.9985   -1.7789 H   0  0  0  0  0  0  0  0  0  0  0  0
    4.0597    0.6731   -1.8719 H   0  0  0  0  0  0  0  0  0  0  0  0
    4.6859    1.0618    0.4840 H   0  0  0  0  0  0  0  0  0  0  0  0
    5.3098   -0.6103    0.6151 H   0  0  0  0  0  0  0  0  0  0  0  0
    1.2913    0.8431    2.6860 H   0  0  0  0  0  0  0  0  0  0  0  0
   -0.1430   -0.2145    2.7953 H   0  0  0  0  0  0  0  0  0  0  0  0
    1.6465   -0.9687    4.3623 H   0  0  0  0  0  0  0  0  0  0  0  0
    1.3574   -2.1912    3.1133 H   0  0  0  0  0  0  0  0  0  0  0  0
    2.7732   -1.1382    3.0064 H   0  0  0  0  0  0  0  0  0  0  0  0
    0.1578   -1.9394   -0.3198 H   0  0  0  0  0  0  0  0  0  0  0  0
    0.4519   -2.6032   -1.9690 H   0  0  0  0  0  0  0  0  0  0  0  0
   -0.4346    3.0056   -0.5060 H   0  0  0  0  0  0  0  0  0  0  0  0
   -2.1909    2.7481   -0.7346 H   0  0  0  0  0  0  0  0  0  0  0  0
   -1.7614    3.7333    1.4944 H   0  0  0  0  0  0  0  0  0  0  0  0
   -2.3963    2.0865    1.6570 H   0  0  0  0  0  0  0  0  0  0  0  0
   -0.6643    2.4024    1.8925 H   0  0  0  0  0  0  0  0  0  0  0  0
   -2.5321   -1.7360    2.5879 H   0  0  0  0  0  0  0  0  0  0  0  0
   -3.8390   -1.0406    1.5837 H   0  0  0  0  0  0  0  0  0  0  0  0
   -3.7617   -3.5313    1.3898 H   0  0  0  0  0  0  0  0  0  0  0  0
   -3.4497   -2.7388   -0.1604 H   0  0  0  0  0  0  0  0  0  0  0  0
   -2.1077   -3.4298    0.7654 H   0  0  0  0  0  0  0  0  0  0  0  0
  1  2  1  0  0  0  0
  2  3  1  0  0  0  0
  3  4  1  0  0  0  0
  4  5  2  0  0  0  0
  4  6  1  0  0  0  0
  6  7  1  0  0  0  0
  7  8  1  0  0  0  0
  4  9  1  0  0  0  0
  9 10  1  0  0  0  0
 10 11  1  0  0  0  0
 11 12  1  0  0  0  0
 12 13  2  0  0  0  0
 12 14  1  0  0  0  0
 14 15  1  0  0  0  0
 15 16  1  0  0  0  0
 12 17  1  0  0  0  0
 17 18  1  0  0  0  0
 18 19  1  0  0  0  0
  1 20  1  0  0  0  0
  1 21  1  0  0  0  0
  1 22  1  0  0  0  0
  2 23  1  0  0  0  0
  2 24  1  0  0  0  0
  7 25  1  0  0  0  0
  7 26  1  0  0  0  0
  8 27  1  0  0  0  0
  8 28  1  0  0  0  0
  8 29  1  0  0  0  0
 10 30  1  0  0  0  0
 10 31  1  0  0  0  0
 15 32  1  0  0  0  0
 15 33  1  0  0  0  0
 16 34  1  0  0  0  0
 16 35  1  0  0  0  0
 16 36  1  0  0  0  0
 18 37  1  0  0  0  0
 18 38  1  0  0  0  0
 19 39  1  0  0  0  0
 19 40  1  0  0  0  0
 19 41  1  0  0  0  0
M  END
