 xtb: 6.7.1 (edcfbbe)
          04032519483D

 19 19  0     0  0            999 V2000
   -2.5109   -0.7604    0.0116 C   0  0  0  0  0  0  0  0  0  0  0  0
   -1.2140   -0.0048    0.0030 C   0  0  0  0  0  0  0  0  0  0  0  0
   -1.2153    1.3809   -0.0135 C   0  0  0  0  0  0  0  0  0  0  0  0
   -0.0300    2.0929   -0.0227 C   0  0  0  0  0  0  0  0  0  0  0  0
    1.1711    1.4114   -0.0281 C   0  0  0  0  0  0  0  0  0  0  0  0
    1.2159    0.0226   -0.0139 C   0  0  0  0  0  0  0  0  0  0  0  0
    0.0100   -0.6842    0.0151 C   0  0  0  0  0  0  0  0  0  0  0  0
   -0.0391   -2.0510    0.0540 O   0  0  0  0  0  0  0  0  0  0  0  0
    2.5609   -0.6532   -0.0153 C   0  0  0  0  0  0  0  0  0  0  0  0
   -3.1018   -0.5000   -0.8650 H   0  0  0  0  0  0  0  0  0  0  0  0
   -2.3286   -1.8306    0.0086 H   0  0  0  0  0  0  0  0  0  0  0  0
   -3.0903   -0.5033    0.8968 H   0  0  0  0  0  0  0  0  0  0  0  0
   -2.1619    1.9010   -0.0167 H   0  0  0  0  0  0  0  0  0  0  0  0
   -0.0430    3.1722   -0.0300 H   0  0  0  0  0  0  0  0  0  0  0  0
    2.1013    1.9605   -0.0426 H   0  0  0  0  0  0  0  0  0  0  0  0
    0.8534   -2.4188    0.1195 H   0  0  0  0  0  0  0  0  0  0  0  0
    3.0014   -0.6158    0.9809 H   0  0  0  0  0  0  0  0  0  0  0  0
    2.5170   -1.6918   -0.3337 H   0  0  0  0  0  0  0  0  0  0  0  0
    3.2293   -0.1289   -0.6946 H   0  0  0  0  0  0  0  0  0  0  0  0
  1  2  1  0  0  0  0
  2  3  4  0  0  0  0
  3  4  4  0  0  0  0
  4  5  4  0  0  0  0
  5  6  4  0  0  0  0
  2  7  4  0  0  0  0
  6  7  4  0  0  0  0
  7  8  1  0  0  0  0
  6  9  1  0  0  0  0
  1 10  1  0  0  0  0
  1 11  1  0  0  0  0
  1 12  1  0  0  0  0
  3 13  1  0  0  0  0
  4 14  1  0  0  0  0
  5 15  1  0  0  0  0
  8 16  1  0  0  0  0
  9 17  1  0  0  0  0
  9 18  1  0  0  0  0
  9 19  1  0  0  0  0
M  END
