 xtb: 6.7.1 (edcfbbe)
          04092513573D

 41 40  0     0  0            999 V2000
    3.4114   -1.6023   -2.5859 C   0  0  0  0  0  0  0  0  0  0  0  0
    2.1379   -1.1011   -1.9364 C   0  0  0  0  0  0  0  0  0  0  0  0
    2.4190   -0.0059   -1.0317 O   0  0  0  0  0  0  0  0  0  0  0  0
    2.4933   -0.1720    0.5372 P   0  0  0  0  0  0  0  0  0  0  0  0
    3.0309    1.4887    1.4141 S   0  0  0  0  0  0  0  0  0  0  0  0
    3.4686   -1.4159    0.7107 O   0  0  0  0  0  0  0  0  0  0  0  0
    4.2183   -1.6745    1.9124 C   0  0  0  0  0  0  0  0  0  0  0  0
    3.3455   -2.1670    3.0484 C   0  0  0  0  0  0  0  0  0  0  0  0
    0.5859   -0.9484    1.0975 S   0  0  0  0  0  0  0  0  0  0  0  0
   -0.2857    0.6351    1.1571 C   0  0  0  0  0  0  0  0  0  0  0  0
   -0.6559    1.3386   -0.4845 S   0  0  0  0  0  0  0  0  0  0  0  0
   -2.6386    0.5781   -0.7178 P   0  0  0  0  0  0  0  0  0  0  0  0
   -3.5056    1.1151   -2.3886 S   0  0  0  0  0  0  0  0  0  0  0  0
   -3.4089    0.9032    0.6280 O   0  0  0  0  0  0  0  0  0  0  0  0
   -4.2421    2.0685    0.7639 C   0  0  0  0  0  0  0  0  0  0  0  0
   -3.4176    3.3240    0.9696 C   0  0  0  0  0  0  0  0  0  0  0  0
   -2.4982   -0.9790   -0.4594 O   0  0  0  0  0  0  0  0  0  0  0  0
   -1.8883   -1.8207   -1.4592 C   0  0  0  0  0  0  0  0  0  0  0  0
   -1.7911   -3.2196   -0.8868 C   0  0  0  0  0  0  0  0  0  0  0  0
    3.9171   -0.7855   -3.0936 H   0  0  0  0  0  0  0  0  0  0  0  0
    4.0794   -2.0184   -1.8366 H   0  0  0  0  0  0  0  0  0  0  0  0
    3.1589   -2.3716   -3.3092 H   0  0  0  0  0  0  0  0  0  0  0  0
    1.6395   -1.9015   -1.3818 H   0  0  0  0  0  0  0  0  0  0  0  0
    1.4563   -0.6780   -2.6783 H   0  0  0  0  0  0  0  0  0  0  0  0
    4.9416   -2.4326    1.6080 H   0  0  0  0  0  0  0  0  0  0  0  0
    4.7412   -0.7564    2.1975 H   0  0  0  0  0  0  0  0  0  0  0  0
    3.9808   -2.4546    3.8807 H   0  0  0  0  0  0  0  0  0  0  0  0
    2.6728   -1.3767    3.3763 H   0  0  0  0  0  0  0  0  0  0  0  0
    2.7569   -3.0243    2.7329 H   0  0  0  0  0  0  0  0  0  0  0  0
    0.3465    1.3641    1.6656 H   0  0  0  0  0  0  0  0  0  0  0  0
   -1.2173    0.4670    1.6921 H   0  0  0  0  0  0  0  0  0  0  0  0
   -4.8708    2.1599   -0.1279 H   0  0  0  0  0  0  0  0  0  0  0  0
   -4.8642    1.8484    1.6329 H   0  0  0  0  0  0  0  0  0  0  0  0
   -4.0792    4.1577    1.1820 H   0  0  0  0  0  0  0  0  0  0  0  0
   -2.7298    3.1941    1.8015 H   0  0  0  0  0  0  0  0  0  0  0  0
   -2.8454    3.5476    0.0698 H   0  0  0  0  0  0  0  0  0  0  0  0
   -2.5075   -1.7908   -2.3612 H   0  0  0  0  0  0  0  0  0  0  0  0
   -0.8984   -1.4196   -1.7015 H   0  0  0  0  0  0  0  0  0  0  0  0
   -2.7832   -3.5917   -0.6496 H   0  0  0  0  0  0  0  0  0  0  0  0
   -1.3273   -3.8727   -1.6186 H   0  0  0  0  0  0  0  0  0  0  0  0
   -1.1930   -3.2054    0.0206 H   0  0  0  0  0  0  0  0  0  0  0  0
  1  2  1  0  0  0  0
  2  3  1  0  0  0  0
  3  4  2  0  0  0  0
  4  5  2  0  0  0  0
  4  6  2  0  0  0  0
  6  7  1  0  0  0  0
  7  8  1  0  0  0  0
  4  9  1  0  0  0  0
  9 10  1  0  0  0  0
 10 11  1  0  0  0  0
 11 12  1  0  0  0  0
 12 13  2  0  0  0  0
 12 14  2  0  0  0  0
 14 15  1  0  0  0  0
 15 16  1  0  0  0  0
 12 17  2  0  0  0  0
 17 18  1  0  0  0  0
 18 19  1  0  0  0  0
  1 20  1  0  0  0  0
  1 21  1  0  0  0  0
  1 22  1  0  0  0  0
  2 23  1  0  0  0  0
  2 24  1  0  0  0  0
  7 25  1  0  0  0  0
  7 26  1  0  0  0  0
  8 27  1  0  0  0  0
  8 28  1  0  0  0  0
  8 29  1  0  0  0  0
 10 30  1  0  0  0  0
 10 31  1  0  0  0  0
 15 32  1  0  0  0  0
 15 33  1  0  0  0  0
 16 34  1  0  0  0  0
 16 35  1  0  0  0  0
 16 36  1  0  0  0  0
 18 37  1  0  0  0  0
 18 38  1  0  0  0  0
 19 39  1  0  0  0  0
 19 40  1  0  0  0  0
 19 41  1  0  0  0  0
M  END
