41
 xtb: 6.7.1 (edcfbbe)
C            5.27469187775346       -2.46611503000004       -1.47702145287792
C            4.41015077155297       -1.23820732663219       -1.58965911245728
O            3.57258881485232       -1.18512623242292       -0.38078937959460
P            2.70394403895366        0.12164271827914       -0.02305398268966
S            3.59026591707114        1.85178735812175       -0.01563046637132
O            2.14815992759033       -0.24584696042422        1.43053559383678
C            1.43119881889652       -1.50536340732924        1.71226517395339
C            2.31664758673214       -2.42342632976177        2.51512092025105
S            1.12268057785730       -0.09135665811464       -1.43344716796653
C            0.29363294630306        1.53405467352615       -1.25858708709787
S           -0.65713076621706        1.80794359230763        0.28779113013488
P           -2.30917027340298        0.51924219192198       -0.01153686442323
S           -2.93268413015710        0.33732366069754       -1.84849842732956
O           -3.35672141408380        1.09244935764358        1.06671596842321
C           -4.19425507441392        2.26804534946319        0.77621589359917
C           -5.63971531476385        1.88306235307791        0.95616884463823
O           -1.82871093968041       -0.82270935644773        0.72552468212424
C           -2.70022182939165       -2.01263388170048        0.74022106694369
C           -1.87131532618148       -3.16600802630519        1.24190001625090
H            5.89682537332251       -2.54198287438915       -2.37396944608067
H            5.93121535958130       -2.40358263948545       -0.60467715548824
H            4.66409967277319       -3.37038715927098       -1.40298154235402
H            3.74982467256570       -1.28456438243931       -2.46130024416693
H            5.00703128572640       -0.32203856934518       -1.63420645461635
H            0.54553513554957       -1.19863073795740        2.27240499044932
H            1.11270421251180       -1.96205013906197        0.77094596825266
H            2.63544599241151       -1.94419448190335        3.44491630875149
H            1.74770698744438       -3.32369100669010        2.77003562092949
H            3.19960190170653       -2.72261233195899        1.94404223181461
H           -0.37855695833088        1.62350312155681       -2.11700984149057
H            1.04246085665045        2.33139400984133       -1.29453775999664
H           -3.88077362967067        3.03866511842821        1.48505704577306
H           -3.99380557630136        2.61604591138878       -0.24164777757680
H           -6.26619302449667        2.76676786166619        0.79933135264950
H           -5.93225240655830        1.11730888463590        0.23210620076804
H           -5.82148283473188        1.50733140197688        1.96706859936393
H           -3.54805353430949       -1.79761189808416        1.39808582308621
H           -3.06319337126100       -2.18806741704514       -0.27721667452472
H           -1.03366065517156       -3.36644317129441        0.56789555405541
H           -1.48572174937980       -2.96877584593268        2.24625319563237
H           -2.50222221001750       -4.05925506211155        1.28389733968680
