 xtb: 6.7.1 (edcfbbe)
          04092513583D

 41 40  0     0  0            999 V2000
    4.6534   -2.9844   -1.4887 C   0  0  0  0  0  0  0  0  0  0  0  0
    3.8930   -1.6776   -1.5936 C   0  0  0  0  0  0  0  0  0  0  0  0
    2.9802   -1.6060   -0.4779 O   0  0  0  0  0  0  0  0  0  0  0  0
    2.2224   -0.2629   -0.1021 P   0  0  0  0  0  0  0  0  0  0  0  0
    3.3572    1.3334    0.0477 S   0  0  0  0  0  0  0  0  0  0  0  0
    1.4327   -0.6952    1.1972 O   0  0  0  0  0  0  0  0  0  0  0  0
    1.9190   -0.4165    2.5267 C   0  0  0  0  0  0  0  0  0  0  0  0
    3.0722   -1.3249    2.8986 C   0  0  0  0  0  0  0  0  0  0  0  0
    0.6710   -0.1776   -1.5404 S   0  0  0  0  0  0  0  0  0  0  0  0
    0.2300    1.5633   -1.3048 C   0  0  0  0  0  0  0  0  0  0  0  0
   -0.5453    1.8807    0.3048 S   0  0  0  0  0  0  0  0  0  0  0  0
   -2.3562    0.8460   -0.0507 P   0  0  0  0  0  0  0  0  0  0  0  0
   -3.0136    0.8904   -1.9005 S   0  0  0  0  0  0  0  0  0  0  0  0
   -3.1865    1.5975    1.0718 O   0  0  0  0  0  0  0  0  0  0  0  0
   -4.3145    1.0147    1.7620 C   0  0  0  0  0  0  0  0  0  0  0  0
   -5.5340    0.8848    0.8711 C   0  0  0  0  0  0  0  0  0  0  0  0
   -2.2041   -0.6176    0.5582 O   0  0  0  0  0  0  0  0  0  0  0  0
   -2.2316   -1.8396   -0.2092 C   0  0  0  0  0  0  0  0  0  0  0  0
   -1.2802   -2.8332    0.4242 C   0  0  0  0  0  0  0  0  0  0  0  0
    5.2267   -3.0134   -0.5666 H   0  0  0  0  0  0  0  0  0  0  0  0
    3.9584   -3.8187   -1.4984 H   0  0  0  0  0  0  0  0  0  0  0  0
    5.3300   -3.0705   -2.3328 H   0  0  0  0  0  0  0  0  0  0  0  0
    3.3111   -1.6283   -2.5181 H   0  0  0  0  0  0  0  0  0  0  0  0
    4.5654   -0.8144   -1.5489 H   0  0  0  0  0  0  0  0  0  0  0  0
    2.2193    0.6353    2.5753 H   0  0  0  0  0  0  0  0  0  0  0  0
    1.0493   -0.5802    3.1642 H   0  0  0  0  0  0  0  0  0  0  0  0
    3.3476   -1.1490    3.9341 H   0  0  0  0  0  0  0  0  0  0  0  0
    2.7890   -2.3662    2.7711 H   0  0  0  0  0  0  0  0  0  0  0  0
    3.9307   -1.1123    2.2629 H   0  0  0  0  0  0  0  0  0  0  0  0
   -0.4634    1.8195   -2.1061 H   0  0  0  0  0  0  0  0  0  0  0  0
    1.1301    2.1769   -1.3444 H   0  0  0  0  0  0  0  0  0  0  0  0
   -4.0142    0.0418    2.1581 H   0  0  0  0  0  0  0  0  0  0  0  0
   -4.4952    1.7087    2.5844 H   0  0  0  0  0  0  0  0  0  0  0  0
   -6.3696    0.5198    1.4608 H   0  0  0  0  0  0  0  0  0  0  0  0
   -5.7929    1.8492    0.4413 H   0  0  0  0  0  0  0  0  0  0  0  0
   -5.3397    0.1875    0.0573 H   0  0  0  0  0  0  0  0  0  0  0  0
   -3.2603   -2.2080   -0.1818 H   0  0  0  0  0  0  0  0  0  0  0  0
   -1.9609   -1.6232   -1.2468 H   0  0  0  0  0  0  0  0  0  0  0  0
   -0.2556   -2.4761    0.3566 H   0  0  0  0  0  0  0  0  0  0  0  0
   -1.5353   -2.9748    1.4707 H   0  0  0  0  0  0  0  0  0  0  0  0
   -1.3637   -3.7807   -0.0979 H   0  0  0  0  0  0  0  0  0  0  0  0
  1  2  1  0  0  0  0
  2  3  1  0  0  0  0
  3  4  2  0  0  0  0
  4  5  2  0  0  0  0
  4  6  2  0  0  0  0
  6  7  1  0  0  0  0
  7  8  1  0  0  0  0
  4  9  1  0  0  0  0
  9 10  1  0  0  0  0
 10 11  1  0  0  0  0
 11 12  1  0  0  0  0
 12 13  2  0  0  0  0
 12 14  2  0  0  0  0
 14 15  1  0  0  0  0
 15 16  1  0  0  0  0
 12 17  2  0  0  0  0
 17 18  1  0  0  0  0
 18 19  1  0  0  0  0
  1 20  1  0  0  0  0
  1 21  1  0  0  0  0
  1 22  1  0  0  0  0
  2 23  1  0  0  0  0
  2 24  1  0  0  0  0
  7 25  1  0  0  0  0
  7 26  1  0  0  0  0
  8 27  1  0  0  0  0
  8 28  1  0  0  0  0
  8 29  1  0  0  0  0
 10 30  1  0  0  0  0
 10 31  1  0  0  0  0
 15 32  1  0  0  0  0
 15 33  1  0  0  0  0
 16 34  1  0  0  0  0
 16 35  1  0  0  0  0
 16 36  1  0  0  0  0
 18 37  1  0  0  0  0
 18 38  1  0  0  0  0
 19 39  1  0  0  0  0
 19 40  1  0  0  0  0
 19 41  1  0  0  0  0
M  END
