 xtb: 6.7.1 (edcfbbe)
          04092514003D

 41 40  0     0  0            999 V2000
    2.8633   -2.5623    1.9296 C   0  0  0  0  0  0  0  0  0  0  0  0
    1.6386   -2.1152    1.1568 C   0  0  0  0  0  0  0  0  0  0  0  0
    1.6737   -0.6957    0.9283 O   0  0  0  0  0  0  0  0  0  0  0  0
    2.3666   -0.0151   -0.3408 P   0  0  0  0  0  0  0  0  0  0  0  0
    3.0357   -1.2276   -1.7153 S   0  0  0  0  0  0  0  0  0  0  0  0
    3.5165    0.8896    0.2611 O   0  0  0  0  0  0  0  0  0  0  0  0
    3.3810    1.7044    1.4532 C   0  0  0  0  0  0  0  0  0  0  0  0
    3.0965    3.1502    1.0992 C   0  0  0  0  0  0  0  0  0  0  0  0
    0.8777    1.3695   -0.9547 S   0  0  0  0  0  0  0  0  0  0  0  0
   -0.0268    0.2605   -2.0643 C   0  0  0  0  0  0  0  0  0  0  0  0
   -0.8195   -1.1406   -1.2255 S   0  0  0  0  0  0  0  0  0  0  0  0
   -2.1233   -0.0096   -0.0025 P   0  0  0  0  0  0  0  0  0  0  0  0
   -2.9078    1.6141   -0.7776 S   0  0  0  0  0  0  0  0  0  0  0  0
   -1.1927    0.1870    1.2643 O   0  0  0  0  0  0  0  0  0  0  0  0
   -1.3458    1.2934    2.1756 C   0  0  0  0  0  0  0  0  0  0  0  0
   -2.5739    1.1381    3.0483 C   0  0  0  0  0  0  0  0  0  0  0  0
   -3.1675   -1.0785    0.5383 O   0  0  0  0  0  0  0  0  0  0  0  0
   -4.4338   -1.3341   -0.0947 C   0  0  0  0  0  0  0  0  0  0  0  0
   -4.2847   -2.0901   -1.3996 C   0  0  0  0  0  0  0  0  0  0  0  0
    3.7590   -2.3825    1.3366 H   0  0  0  0  0  0  0  0  0  0  0  0
    2.9427   -2.0158    2.8656 H   0  0  0  0  0  0  0  0  0  0  0  0
    2.7854   -3.6243    2.1391 H   0  0  0  0  0  0  0  0  0  0  0  0
    0.7167   -2.2791    1.7176 H   0  0  0  0  0  0  0  0  0  0  0  0
    1.5787   -2.6306    0.1930 H   0  0  0  0  0  0  0  0  0  0  0  0
    2.5918    1.2842    2.0801 H   0  0  0  0  0  0  0  0  0  0  0  0
    4.3452    1.6049    1.9548 H   0  0  0  0  0  0  0  0  0  0  0  0
    2.1310    3.2435    0.6058 H   0  0  0  0  0  0  0  0  0  0  0  0
    3.0903    3.7414    2.0098 H   0  0  0  0  0  0  0  0  0  0  0  0
    3.8660    3.5288    0.4321 H   0  0  0  0  0  0  0  0  0  0  0  0
    0.6632   -0.1706   -2.7895 H   0  0  0  0  0  0  0  0  0  0  0  0
   -0.7848    0.8730   -2.5514 H   0  0  0  0  0  0  0  0  0  0  0  0
   -0.4269    1.2783    2.7635 H   0  0  0  0  0  0  0  0  0  0  0  0
   -1.3971    2.2189    1.5927 H   0  0  0  0  0  0  0  0  0  0  0  0
   -2.5523    0.1819    3.5642 H   0  0  0  0  0  0  0  0  0  0  0  0
   -2.5994    1.9424    3.7771 H   0  0  0  0  0  0  0  0  0  0  0  0
   -3.4729    1.1877    2.4353 H   0  0  0  0  0  0  0  0  0  0  0  0
   -4.9826   -1.9185    0.6454 H   0  0  0  0  0  0  0  0  0  0  0  0
   -4.9373   -0.3764   -0.2616 H   0  0  0  0  0  0  0  0  0  0  0  0
   -3.7864   -1.4669   -2.1408 H   0  0  0  0  0  0  0  0  0  0  0  0
   -3.6979   -2.9929   -1.2507 H   0  0  0  0  0  0  0  0  0  0  0  0
   -5.2693   -2.3580   -1.7704 H   0  0  0  0  0  0  0  0  0  0  0  0
  1  2  1  0  0  0  0
  2  3  1  0  0  0  0
  3  4  1  0  0  0  0
  4  5  2  0  0  0  0
  4  6  2  0  0  0  0
  6  7  1  0  0  0  0
  7  8  1  0  0  0  0
  4  9  1  0  0  0  0
  9 10  1  0  0  0  0
 10 11  1  0  0  0  0
 11 12  1  0  0  0  0
 12 13  2  0  0  0  0
 12 14  2  0  0  0  0
 14 15  1  0  0  0  0
 15 16  1  0  0  0  0
 12 17  2  0  0  0  0
 17 18  1  0  0  0  0
 18 19  1  0  0  0  0
  1 20  1  0  0  0  0
  1 21  1  0  0  0  0
  1 22  1  0  0  0  0
  2 23  1  0  0  0  0
  2 24  1  0  0  0  0
  7 25  1  0  0  0  0
  7 26  1  0  0  0  0
  8 27  1  0  0  0  0
  8 28  1  0  0  0  0
  8 29  1  0  0  0  0
 10 30  1  0  0  0  0
 10 31  1  0  0  0  0
 15 32  1  0  0  0  0
 15 33  1  0  0  0  0
 16 34  1  0  0  0  0
 16 35  1  0  0  0  0
 16 36  1  0  0  0  0
 18 37  1  0  0  0  0
 18 38  1  0  0  0  0
 19 39  1  0  0  0  0
 19 40  1  0  0  0  0
 19 41  1  0  0  0  0
M  END
