 xtb: 6.7.1 (edcfbbe)
          04092513583D

 41 40  0     0  0            999 V2000
    1.7467   -0.0083    3.3106 C   0  0  0  0  0  0  0  0  0  0  0  0
    1.2591   -0.8097    2.1216 C   0  0  0  0  0  0  0  0  0  0  0  0
    2.0444   -0.4183    0.9824 O   0  0  0  0  0  0  0  0  0  0  0  0
    2.1021   -1.2962   -0.3438 P   0  0  0  0  0  0  0  0  0  0  0  0
    2.2581   -3.2273   -0.0604 S   0  0  0  0  0  0  0  0  0  0  0  0
    3.2753   -0.5875   -1.1389 O   0  0  0  0  0  0  0  0  0  0  0  0
    4.6491   -1.0133   -0.9805 C   0  0  0  0  0  0  0  0  0  0  0  0
    5.1965   -0.6758    0.3907 C   0  0  0  0  0  0  0  0  0  0  0  0
    0.4180   -0.7175   -1.4842 S   0  0  0  0  0  0  0  0  0  0  0  0
    0.5353    1.0982   -1.3870 C   0  0  0  0  0  0  0  0  0  0  0  0
   -0.1130    1.8075    0.1517 S   0  0  0  0  0  0  0  0  0  0  0  0
   -2.1112    1.1379   -0.0312 P   0  0  0  0  0  0  0  0  0  0  0  0
   -2.8362    1.0348   -1.8539 S   0  0  0  0  0  0  0  0  0  0  0  0
   -2.8843    2.0670    0.9994 O   0  0  0  0  0  0  0  0  0  0  0  0
   -3.1151    3.4743    0.7722 C   0  0  0  0  0  0  0  0  0  0  0  0
   -4.5075    3.7153    0.2206 C   0  0  0  0  0  0  0  0  0  0  0  0
   -2.1066   -0.2101    0.7992 O   0  0  0  0  0  0  0  0  0  0  0  0
   -2.8072   -1.4165    0.4261 C   0  0  0  0  0  0  0  0  0  0  0  0
   -2.0543   -2.5965    1.0066 C   0  0  0  0  0  0  0  0  0  0  0  0
    1.6574    1.0530    3.0956 H   0  0  0  0  0  0  0  0  0  0  0  0
    1.1404   -0.2533    4.1762 H   0  0  0  0  0  0  0  0  0  0  0  0
    2.7863   -0.2420    3.5214 H   0  0  0  0  0  0  0  0  0  0  0  0
    0.2071   -0.5968    1.9099 H   0  0  0  0  0  0  0  0  0  0  0  0
    1.3808   -1.8874    2.2756 H   0  0  0  0  0  0  0  0  0  0  0  0
    4.6999   -2.0918   -1.1605 H   0  0  0  0  0  0  0  0  0  0  0  0
    5.1799   -0.4805   -1.7705 H   0  0  0  0  0  0  0  0  0  0  0  0
    5.0563    0.3803    0.6052 H   0  0  0  0  0  0  0  0  0  0  0  0
    4.6833   -1.2627    1.1508 H   0  0  0  0  0  0  0  0  0  0  0  0
    6.2558   -0.9128    0.4208 H   0  0  0  0  0  0  0  0  0  0  0  0
   -0.0560    1.4648   -2.2256 H   0  0  0  0  0  0  0  0  0  0  0  0
    1.5745    1.4042   -1.4650 H   0  0  0  0  0  0  0  0  0  0  0  0
   -2.9947    3.9352    1.7545 H   0  0  0  0  0  0  0  0  0  0  0  0
   -2.3519    3.8627    0.0921 H   0  0  0  0  0  0  0  0  0  0  0  0
   -5.2527    3.2879    0.8856 H   0  0  0  0  0  0  0  0  0  0  0  0
   -4.6760    4.7843    0.1350 H   0  0  0  0  0  0  0  0  0  0  0  0
   -4.6112    3.2595   -0.7616 H   0  0  0  0  0  0  0  0  0  0  0  0
   -3.8184   -1.3543    0.8347 H   0  0  0  0  0  0  0  0  0  0  0  0
   -2.8632   -1.4712   -0.6661 H   0  0  0  0  0  0  0  0  0  0  0  0
   -2.5907   -3.5105    0.7742 H   0  0  0  0  0  0  0  0  0  0  0  0
   -1.0545   -2.6607    0.5812 H   0  0  0  0  0  0  0  0  0  0  0  0
   -1.9736   -2.4924    2.0851 H   0  0  0  0  0  0  0  0  0  0  0  0
  1  2  1  0  0  0  0
  2  3  1  0  0  0  0
  3  4  2  0  0  0  0
  4  5  2  0  0  0  0
  4  6  2  0  0  0  0
  6  7  1  0  0  0  0
  7  8  1  0  0  0  0
  4  9  1  0  0  0  0
  9 10  1  0  0  0  0
 10 11  1  0  0  0  0
 11 12  1  0  0  0  0
 12 13  2  0  0  0  0
 12 14  2  0  0  0  0
 14 15  1  0  0  0  0
 15 16  1  0  0  0  0
 12 17  2  0  0  0  0
 17 18  1  0  0  0  0
 18 19  1  0  0  0  0
  1 20  1  0  0  0  0
  1 21  1  0  0  0  0
  1 22  1  0  0  0  0
  2 23  1  0  0  0  0
  2 24  1  0  0  0  0
  7 25  1  0  0  0  0
  7 26  1  0  0  0  0
  8 27  1  0  0  0  0
  8 28  1  0  0  0  0
  8 29  1  0  0  0  0
 10 30  1  0  0  0  0
 10 31  1  0  0  0  0
 15 32  1  0  0  0  0
 15 33  1  0  0  0  0
 16 34  1  0  0  0  0
 16 35  1  0  0  0  0
 16 36  1  0  0  0  0
 18 37  1  0  0  0  0
 18 38  1  0  0  0  0
 19 39  1  0  0  0  0
 19 40  1  0  0  0  0
 19 41  1  0  0  0  0
M  END
