 xtb: 6.7.1 (edcfbbe)
          04092505213D

 41 40  0     0  0            999 V2000
    3.9827   -1.8921   -2.1380 C   0  0  0  0  0  0  0  0  0  0  0  0
    4.5930   -1.4813   -0.8135 C   0  0  0  0  0  0  0  0  0  0  0  0
    3.5959   -1.1977    0.1838 O   0  0  0  0  0  0  0  0  0  0  0  0
    2.6127    0.0449    0.0791 P   0  0  0  0  0  0  0  0  0  0  0  0
    3.4214    1.6801   -0.6286 S   0  0  0  0  0  0  0  0  0  0  0  0
    2.1390    0.2502    1.5671 O   0  0  0  0  0  0  0  0  0  0  0  0
    1.2530   -0.5877    2.3468 C   0  0  0  0  0  0  0  0  0  0  0  0
    1.6351   -2.0515    2.3117 C   0  0  0  0  0  0  0  0  0  0  0  0
    0.9291   -0.6973   -1.0110 S   0  0  0  0  0  0  0  0  0  0  0  0
    0.2693    0.9173   -1.4750 C   0  0  0  0  0  0  0  0  0  0  0  0
   -0.5010    1.7783   -0.0739 S   0  0  0  0  0  0  0  0  0  0  0  0
   -2.2631    0.6059   -0.0499 P   0  0  0  0  0  0  0  0  0  0  0  0
   -3.0122    0.1745   -1.8129 S   0  0  0  0  0  0  0  0  0  0  0  0
   -3.0582    1.5597    0.9317 O   0  0  0  0  0  0  0  0  0  0  0  0
   -4.2330    1.1428    1.6623 C   0  0  0  0  0  0  0  0  0  0  0  0
   -5.4623    1.0939    0.7769 C   0  0  0  0  0  0  0  0  0  0  0  0
   -1.9494   -0.6687    0.8540 O   0  0  0  0  0  0  0  0  0  0  0  0
   -1.9977   -2.0321    0.3879 C   0  0  0  0  0  0  0  0  0  0  0  0
   -3.2870   -2.6876    0.8407 C   0  0  0  0  0  0  0  0  0  0  0  0
    3.2704   -2.7004   -1.9943 H   0  0  0  0  0  0  0  0  0  0  0  0
    3.4683   -1.0456   -2.5902 H   0  0  0  0  0  0  0  0  0  0  0  0
    4.7708   -2.2204   -2.8080 H   0  0  0  0  0  0  0  0  0  0  0  0
    5.2194   -0.5926   -0.9386 H   0  0  0  0  0  0  0  0  0  0  0  0
    5.1780   -2.2891   -0.3718 H   0  0  0  0  0  0  0  0  0  0  0  0
    1.3407   -0.1712    3.3517 H   0  0  0  0  0  0  0  0  0  0  0  0
    0.2340   -0.4338    1.9808 H   0  0  0  0  0  0  0  0  0  0  0  0
    2.6644   -2.1779    2.6371 H   0  0  0  0  0  0  0  0  0  0  0  0
    0.9782   -2.6046    2.9765 H   0  0  0  0  0  0  0  0  0  0  0  0
    1.5380   -2.4438    1.3009 H   0  0  0  0  0  0  0  0  0  0  0  0
   -0.4747    0.7530   -2.2557 H   0  0  0  0  0  0  0  0  0  0  0  0
    1.0845    1.5510   -1.8263 H   0  0  0  0  0  0  0  0  0  0  0  0
   -4.0354    0.1693    2.1178 H   0  0  0  0  0  0  0  0  0  0  0  0
   -4.3342    1.9007    2.4411 H   0  0  0  0  0  0  0  0  0  0  0  0
   -5.6268    2.0609    0.3088 H   0  0  0  0  0  0  0  0  0  0  0  0
   -5.3372    0.3505   -0.0084 H   0  0  0  0  0  0  0  0  0  0  0  0
   -6.3281    0.8341    1.3780 H   0  0  0  0  0  0  0  0  0  0  0  0
   -1.9187   -2.0417   -0.7031 H   0  0  0  0  0  0  0  0  0  0  0  0
   -1.1230   -2.5179    0.8216 H   0  0  0  0  0  0  0  0  0  0  0  0
   -4.1386   -2.1949    0.3757 H   0  0  0  0  0  0  0  0  0  0  0  0
   -3.2785   -3.7304    0.5409 H   0  0  0  0  0  0  0  0  0  0  0  0
   -3.3846   -2.6261    1.9211 H   0  0  0  0  0  0  0  0  0  0  0  0
  1  2  1  0  0  0  0
  2  3  1  0  0  0  0
  3  4  2  0  0  0  0
  4  5  2  0  0  0  0
  4  6  2  0  0  0  0
  6  7  1  0  0  0  0
  7  8  1  0  0  0  0
  4  9  1  0  0  0  0
  9 10  1  0  0  0  0
 10 11  1  0  0  0  0
 11 12  1  0  0  0  0
 12 13  2  0  0  0  0
 12 14  2  0  0  0  0
 14 15  1  0  0  0  0
 15 16  1  0  0  0  0
 12 17  2  0  0  0  0
 17 18  1  0  0  0  0
 18 19  1  0  0  0  0
  1 20  1  0  0  0  0
  1 21  1  0  0  0  0
  1 22  1  0  0  0  0
  2 23  1  0  0  0  0
  2 24  1  0  0  0  0
  7 25  1  0  0  0  0
  7 26  1  0  0  0  0
  8 27  1  0  0  0  0
  8 28  1  0  0  0  0
  8 29  1  0  0  0  0
 10 30  1  0  0  0  0
 10 31  1  0  0  0  0
 15 32  1  0  0  0  0
 15 33  1  0  0  0  0
 16 34  1  0  0  0  0
 16 35  1  0  0  0  0
 16 36  1  0  0  0  0
 18 37  1  0  0  0  0
 18 38  1  0  0  0  0
 19 39  1  0  0  0  0
 19 40  1  0  0  0  0
 19 41  1  0  0  0  0
M  END
