22
 xtb: 6.7.1 (edcfbbe)
C            4.38439134780777        1.39733215479818       -0.00055188420496
C            3.10118532214630        1.93760613561553        0.00040164249001
C            2.00154211551686        1.09899379662897        0.00131888432678
C            2.17023952926522       -0.27946074993674        0.00128877873051
C            3.43502576861629       -0.84113889340519        0.00025324274421
C            4.52992667339355        0.01661166258444       -0.00064084020562
Cl           6.14275148428793       -0.67745525807510       -0.00193815714521
O            1.08812137039921       -1.14681159630020        0.00241886893091
C           -0.15455671543326       -0.56707002192004        0.00144359217797
C           -0.32459893118409        0.81584793545971        0.00136616451162
C           -1.60556740959464        1.35915521536822        0.00037673820156
C           -2.72721331112126        0.52205057781795       -0.00038143462521
C           -2.55671702496999       -0.86389768710046       -0.00020973542567
C           -1.26543861687191       -1.40461069097719        0.00063338831036
Cl          -1.01078610089451       -3.11742996654196        0.00078572777608
Cl          -3.93071726298861       -1.91584886668109       -0.00106218998676
Cl          -4.31499472647992        1.20980485764049       -0.00151547154435
Cl          -1.77198128690156        3.08285318737760        0.00022208516292
O            0.73958209013110        1.67842677334286        0.00237640615143
H            5.24928698316480        2.04930413909792       -0.00124232864308
H            2.95041882102874        3.01159472388589        0.00047065207906
H            3.54299528035240       -1.91945328297504        0.00020493499888
