 xtb: 6.7.1 (edcfbbe)
          04092505213D

 41 40  0     0  0            999 V2000
    3.2263    1.0239   -2.7670 C   0  0  0  0  0  0  0  0  0  0  0  0
    3.8852    1.2236   -1.4171 C   0  0  0  0  0  0  0  0  0  0  0  0
    3.5714    0.1596   -0.5044 O   0  0  0  0  0  0  0  0  0  0  0  0
    2.1050   -0.0768    0.0726 P   0  0  0  0  0  0  0  0  0  0  0  0
    1.2313    1.6285    0.5260 S   0  0  0  0  0  0  0  0  0  0  0  0
    2.3874   -1.0602    1.2764 O   0  0  0  0  0  0  0  0  0  0  0  0
    2.5547   -0.6363    2.6476 C   0  0  0  0  0  0  0  0  0  0  0  0
    1.9454   -1.6910    3.5488 C   0  0  0  0  0  0  0  0  0  0  0  0
    1.3372   -1.4380   -1.3275 S   0  0  0  0  0  0  0  0  0  0  0  0
   -0.1364   -2.1607   -0.4992 C   0  0  0  0  0  0  0  0  0  0  0  0
   -0.7773   -1.2708    0.9390 S   0  0  0  0  0  0  0  0  0  0  0  0
   -1.9133    0.2321   -0.0208 P   0  0  0  0  0  0  0  0  0  0  0  0
   -1.4333    0.6513   -1.8790 S   0  0  0  0  0  0  0  0  0  0  0  0
   -1.8053    1.2928    1.1416 O   0  0  0  0  0  0  0  0  0  0  0  0
   -2.6565    2.4493    1.2782 C   0  0  0  0  0  0  0  0  0  0  0  0
   -2.3861    3.4829    0.2037 C   0  0  0  0  0  0  0  0  0  0  0  0
   -3.4500   -0.1815    0.1207 O   0  0  0  0  0  0  0  0  0  0  0  0
   -4.1756   -0.9320   -0.8637 C   0  0  0  0  0  0  0  0  0  0  0  0
   -4.1167   -2.4188   -0.5726 C   0  0  0  0  0  0  0  0  0  0  0  0
    3.4747    0.0446   -3.1686 H   0  0  0  0  0  0  0  0  0  0  0  0
    2.1424    1.0936   -2.6667 H   0  0  0  0  0  0  0  0  0  0  0  0
    3.5637    1.7945   -3.4527 H   0  0  0  0  0  0  0  0  0  0  0  0
    3.5638    2.1697   -0.9684 H   0  0  0  0  0  0  0  0  0  0  0  0
    4.9732    1.1957   -1.4893 H   0  0  0  0  0  0  0  0  0  0  0  0
    3.6269   -0.5259    2.8242 H   0  0  0  0  0  0  0  0  0  0  0  0
    2.0663    0.3362    2.7775 H   0  0  0  0  0  0  0  0  0  0  0  0
    2.4191   -2.6508    3.3658 H   0  0  0  0  0  0  0  0  0  0  0  0
    2.0984   -1.4039    4.5840 H   0  0  0  0  0  0  0  0  0  0  0  0
    0.8797   -1.7802    3.3524 H   0  0  0  0  0  0  0  0  0  0  0  0
    0.1408   -3.1495   -0.1420 H   0  0  0  0  0  0  0  0  0  0  0  0
   -0.8989   -2.2161   -1.2757 H   0  0  0  0  0  0  0  0  0  0  0  0
   -3.6982    2.1197    1.2607 H   0  0  0  0  0  0  0  0  0  0  0  0
   -2.4017    2.8320    2.2682 H   0  0  0  0  0  0  0  0  0  0  0  0
   -2.6771    3.1010   -0.7737 H   0  0  0  0  0  0  0  0  0  0  0  0
   -2.9512    4.3846    0.4168 H   0  0  0  0  0  0  0  0  0  0  0  0
   -1.3237    3.7183    0.1787 H   0  0  0  0  0  0  0  0  0  0  0  0
   -5.1986   -0.5579   -0.7951 H   0  0  0  0  0  0  0  0  0  0  0  0
   -3.7672   -0.6991   -1.8536 H   0  0  0  0  0  0  0  0  0  0  0  0
   -4.7498   -2.9452   -1.2795 H   0  0  0  0  0  0  0  0  0  0  0  0
   -3.0977   -2.7881   -0.6657 H   0  0  0  0  0  0  0  0  0  0  0  0
   -4.4652   -2.6137    0.4379 H   0  0  0  0  0  0  0  0  0  0  0  0
  1  2  1  0  0  0  0
  2  3  1  0  0  0  0
  3  4  2  0  0  0  0
  4  5  2  0  0  0  0
  4  6  2  0  0  0  0
  6  7  1  0  0  0  0
  7  8  1  0  0  0  0
  4  9  1  0  0  0  0
  9 10  1  0  0  0  0
 10 11  1  0  0  0  0
 11 12  1  0  0  0  0
 12 13  2  0  0  0  0
 12 14  2  0  0  0  0
 14 15  1  0  0  0  0
 15 16  1  0  0  0  0
 12 17  2  0  0  0  0
 17 18  1  0  0  0  0
 18 19  1  0  0  0  0
  1 20  1  0  0  0  0
  1 21  1  0  0  0  0
  1 22  1  0  0  0  0
  2 23  1  0  0  0  0
  2 24  1  0  0  0  0
  7 25  1  0  0  0  0
  7 26  1  0  0  0  0
  8 27  1  0  0  0  0
  8 28  1  0  0  0  0
  8 29  1  0  0  0  0
 10 30  1  0  0  0  0
 10 31  1  0  0  0  0
 15 32  1  0  0  0  0
 15 33  1  0  0  0  0
 16 34  1  0  0  0  0
 16 35  1  0  0  0  0
 16 36  1  0  0  0  0
 18 37  1  0  0  0  0
 18 38  1  0  0  0  0
 19 39  1  0  0  0  0
 19 40  1  0  0  0  0
 19 41  1  0  0  0  0
M  END
