38
 xtb: 6.7.1 (edcfbbe)
C            5.37469968884866       -0.35328550884184       -0.45437413778019
C            4.78439306902114       -0.93119560485818       -1.71919388562387
O            3.43977158975620       -1.45591999204422       -1.45846523695874
C            2.43155841028304       -0.57387534391657       -1.46940997705541
O            2.55131397783257        0.60916537906133       -1.73471607872156
C            1.11527576563306       -1.24666578548885       -1.16423204306447
C            0.18044107039729       -0.31348976791161       -0.39945786582380
H            0.03696843882290        0.61827418943552       -0.96330948190586
C            0.66565688555642        0.09620004898685        0.98490006118954
O           -0.02589467317618        0.69602930269162        1.78568194013446
O            1.93935061182671       -0.24592579641442        1.18284352752329
C            2.57308997549286        0.21318821160099        2.42677437618991
C            2.96969567472654        1.66670165530723        2.32642994314732
S           -1.47558382112682       -1.12237655450144       -0.27960517368500
P           -2.80271637227327        0.54050154974688       -0.24715736310626
S           -2.24962071438198        2.09734886080748       -1.26583835755844
O           -4.16406856594645       -0.20920364873480       -0.67728815656337
C           -4.40843089758968       -0.53755128841297       -2.07448618710533
O           -3.13704205769122        0.91854627576612        1.27417750220140
C           -3.51132161364781       -0.09983716875525        2.24973907981391
H            6.39662657597264       -0.01851948976409       -0.65841665586232
H            4.79697391926979        0.50561825700276       -0.10248083645561
H            5.41123477036146       -1.10768934581525        0.33673281194170
H            5.34237419518844       -1.80328093315407       -2.06411015770197
H            4.72544459008857       -0.19598134903668       -2.52514300258734
H            1.28756617968695       -2.18124197513014       -0.62672295609550
H            0.66206507908311       -1.49265478666482       -2.13207991103888
H            1.88279926293991        0.02461936879211        3.25250751758284
H            3.44304948642463       -0.43832477175309        2.52259848996592
H            2.09670078179511        2.31644150012444        2.22691332668668
H            3.50393981679046        1.94675631506189        3.23979072494776
H            3.63676857467309        1.83060051701009        1.47548006564889
H           -5.33885610897743       -1.10486510245073       -2.08271315153881
H           -3.59471959462824       -1.14802112340056       -2.47550902913717
H           -4.51841883042967        0.38081108325192       -2.65611314078728
H           -3.68724694039206        0.44244842748794        3.17846717799356
H           -2.69293263440891       -0.81224140594704        2.38145302224686
H           -4.42241717561242       -0.61246445967678        1.93300531815207
