 xtb: 6.7.1 (edcfbbe)
          04092505213D

 41 40  0     0  0            999 V2000
    4.6797    0.0243   -2.5656 C   0  0  0  0  0  0  0  0  0  0  0  0
    3.6451   -1.0346   -2.2365 C   0  0  0  0  0  0  0  0  0  0  0  0
    3.3122   -0.9885   -0.8356 O   0  0  0  0  0  0  0  0  0  0  0  0
    1.9516   -0.3663   -0.2913 P   0  0  0  0  0  0  0  0  0  0  0  0
    1.4389    1.2872   -1.2206 S   0  0  0  0  0  0  0  0  0  0  0  0
    2.2119   -0.3059    1.2654 O   0  0  0  0  0  0  0  0  0  0  0  0
    2.7487    0.8677    1.9088 C   0  0  0  0  0  0  0  0  0  0  0  0
    4.1793    1.1284    1.4922 C   0  0  0  0  0  0  0  0  0  0  0  0
    0.7108   -2.0846   -0.3869 S   0  0  0  0  0  0  0  0  0  0  0  0
   -0.3997   -1.9535    1.0537 C   0  0  0  0  0  0  0  0  0  0  0  0
   -2.1207   -1.6071    0.6231 S   0  0  0  0  0  0  0  0  0  0  0  0
   -1.9757    0.5063    0.4465 P   0  0  0  0  0  0  0  0  0  0  0  0
   -0.7204    1.3400    1.6927 S   0  0  0  0  0  0  0  0  0  0  0  0
   -3.4882    0.9639    0.6053 O   0  0  0  0  0  0  0  0  0  0  0  0
   -4.1696    0.8784    1.8748 C   0  0  0  0  0  0  0  0  0  0  0  0
   -5.4231    1.7244    1.7859 C   0  0  0  0  0  0  0  0  0  0  0  0
   -1.6907    0.8555   -1.0570 O   0  0  0  0  0  0  0  0  0  0  0  0
   -2.4835    0.3427   -2.1620 C   0  0  0  0  0  0  0  0  0  0  0  0
   -1.6560   -0.6273   -2.9803 C   0  0  0  0  0  0  0  0  0  0  0  0
    4.9782   -0.0780   -3.6038 H   0  0  0  0  0  0  0  0  0  0  0  0
    4.2566    1.0154   -2.4148 H   0  0  0  0  0  0  0  0  0  0  0  0
    5.5501   -0.0919   -1.9261 H   0  0  0  0  0  0  0  0  0  0  0  0
    4.0327   -2.0408   -2.4051 H   0  0  0  0  0  0  0  0  0  0  0  0
    2.7392   -0.8858   -2.8305 H   0  0  0  0  0  0  0  0  0  0  0  0
    2.1048    1.7203    1.6691 H   0  0  0  0  0  0  0  0  0  0  0  0
    2.6638    0.6410    2.9725 H   0  0  0  0  0  0  0  0  0  0  0  0
    4.2130    1.3880    0.4351 H   0  0  0  0  0  0  0  0  0  0  0  0
    4.5763    1.9551    2.0727 H   0  0  0  0  0  0  0  0  0  0  0  0
    4.7845    0.2410    1.6581 H   0  0  0  0  0  0  0  0  0  0  0  0
   -0.0332   -1.1727    1.7215 H   0  0  0  0  0  0  0  0  0  0  0  0
   -0.3944   -2.9272    1.5356 H   0  0  0  0  0  0  0  0  0  0  0  0
   -4.4063   -0.1722    2.0624 H   0  0  0  0  0  0  0  0  0  0  0  0
   -3.4940    1.2404    2.6567 H   0  0  0  0  0  0  0  0  0  0  0  0
   -5.1612    2.7591    1.5828 H   0  0  0  0  0  0  0  0  0  0  0  0
   -6.0617    1.3598    0.9867 H   0  0  0  0  0  0  0  0  0  0  0  0
   -5.9573    1.6679    2.7285 H   0  0  0  0  0  0  0  0  0  0  0  0
   -3.3852   -0.1304   -1.7668 H   0  0  0  0  0  0  0  0  0  0  0  0
   -2.7518    1.2257   -2.7433 H   0  0  0  0  0  0  0  0  0  0  0  0
   -2.2097   -0.9037   -3.8716 H   0  0  0  0  0  0  0  0  0  0  0  0
   -0.7203   -0.1548   -3.2705 H   0  0  0  0  0  0  0  0  0  0  0  0
   -1.4306   -1.5248   -2.4078 H   0  0  0  0  0  0  0  0  0  0  0  0
  1  2  1  0  0  0  0
  2  3  1  0  0  0  0
  3  4  2  0  0  0  0
  4  5  2  0  0  0  0
  4  6  2  0  0  0  0
  6  7  1  0  0  0  0
  7  8  1  0  0  0  0
  4  9  1  0  0  0  0
  9 10  1  0  0  0  0
 10 11  1  0  0  0  0
 11 12  1  0  0  0  0
 12 13  2  0  0  0  0
 12 14  2  0  0  0  0
 14 15  1  0  0  0  0
 15 16  1  0  0  0  0
 12 17  2  0  0  0  0
 17 18  1  0  0  0  0
 18 19  1  0  0  0  0
  1 20  1  0  0  0  0
  1 21  1  0  0  0  0
  1 22  1  0  0  0  0
  2 23  1  0  0  0  0
  2 24  1  0  0  0  0
  7 25  1  0  0  0  0
  7 26  1  0  0  0  0
  8 27  1  0  0  0  0
  8 28  1  0  0  0  0
  8 29  1  0  0  0  0
 10 30  1  0  0  0  0
 10 31  1  0  0  0  0
 15 32  1  0  0  0  0
 15 33  1  0  0  0  0
 16 34  1  0  0  0  0
 16 35  1  0  0  0  0
 16 36  1  0  0  0  0
 18 37  1  0  0  0  0
 18 38  1  0  0  0  0
 19 39  1  0  0  0  0
 19 40  1  0  0  0  0
 19 41  1  0  0  0  0
M  END
