 xtb: 6.7.1 (edcfbbe)
          04092507313D

 38 37  0     0  0            999 V2000
    3.0406   -1.6770    1.6902 C   0  0  0  0  0  0  0  0  0  0  0  0
    2.8909   -2.3057    0.3147 C   0  0  0  0  0  0  0  0  0  0  0  0
    2.6766   -1.2891   -0.6847 O   0  0  0  0  0  0  0  0  0  0  0  0
    1.4595   -1.0031   -1.0699 C   0  0  0  0  0  0  0  0  0  0  0  0
    0.4563   -1.5627   -0.6556 O   0  0  0  0  0  0  0  0  0  0  0  0
    1.4301    0.0866   -2.1152 C   0  0  0  0  0  0  0  0  0  0  0  0
    0.2948    1.0680   -1.8463 C   0  0  0  0  0  0  0  0  0  0  0  0
    0.2427    1.8118   -2.6466 H   0  0  0  0  0  0  0  0  0  0  0  0
    0.4105    1.8109   -0.5257 C   0  0  0  0  0  0  0  0  0  0  0  0
   -0.5400    2.3469    0.0081 O   0  0  0  0  0  0  0  0  0  0  0  0
    1.6348    1.8213   -0.0691 O   0  0  0  0  0  0  0  0  0  0  0  0
    1.8937    2.4914    1.1832 C   0  0  0  0  0  0  0  0  0  0  0  0
    3.3910    2.6879    1.3042 C   0  0  0  0  0  0  0  0  0  0  0  0
   -1.3606    0.2760   -1.8904 S   0  0  0  0  0  0  0  0  0  0  0  0
   -1.6528   -0.3279    0.1119 P   0  0  0  0  0  0  0  0  0  0  0  0
   -0.5017   -0.2184    1.7094 S   0  0  0  0  0  0  0  0  0  0  0  0
   -2.9642    0.5782    0.2738 O   0  0  0  0  0  0  0  0  0  0  0  0
   -3.7216    0.6151    1.4851 C   0  0  0  0  0  0  0  0  0  0  0  0
   -2.3631   -1.7565   -0.0153 O   0  0  0  0  0  0  0  0  0  0  0  0
   -1.7707   -3.0202    0.2806 C   0  0  0  0  0  0  0  0  0  0  0  0
    3.8577   -0.9616    1.6887 H   0  0  0  0  0  0  0  0  0  0  0  0
    2.1219   -1.1660    1.9743 H   0  0  0  0  0  0  0  0  0  0  0  0
    3.2466   -2.4538    2.4188 H   0  0  0  0  0  0  0  0  0  0  0  0
    2.0490   -3.0028    0.2953 H   0  0  0  0  0  0  0  0  0  0  0  0
    3.8090   -2.8067    0.0058 H   0  0  0  0  0  0  0  0  0  0  0  0
    1.2583   -0.3820   -3.0862 H   0  0  0  0  0  0  0  0  0  0  0  0
    2.3899    0.6016   -2.1185 H   0  0  0  0  0  0  0  0  0  0  0  0
    1.3469    3.4389    1.1867 H   0  0  0  0  0  0  0  0  0  0  0  0
    1.4957    1.8597    1.9844 H   0  0  0  0  0  0  0  0  0  0  0  0
    3.7528    3.3246    0.5025 H   0  0  0  0  0  0  0  0  0  0  0  0
    3.6110    3.1526    2.2592 H   0  0  0  0  0  0  0  0  0  0  0  0
    3.8944    1.7278    1.2487 H   0  0  0  0  0  0  0  0  0  0  0  0
   -3.0535    0.7053    2.3447 H   0  0  0  0  0  0  0  0  0  0  0  0
   -4.3211   -0.2908    1.5750 H   0  0  0  0  0  0  0  0  0  0  0  0
   -4.3570    1.4936    1.4074 H   0  0  0  0  0  0  0  0  0  0  0  0
   -1.2539   -3.3963   -0.5999 H   0  0  0  0  0  0  0  0  0  0  0  0
   -2.5942   -3.6740    0.5584 H   0  0  0  0  0  0  0  0  0  0  0  0
   -1.0651   -2.9168    1.1064 H   0  0  0  0  0  0  0  0  0  0  0  0
  1  2  1  0  0  0  0
  2  3  1  0  0  0  0
  3  4  4  0  0  0  0
  4  5  2  0  0  0  0
  4  6  1  0  0  0  0
  6  7  1  0  0  0  0
  7  8  1  0  0  0  0
  7  9  1  0  0  0  0
  9 10  2  0  0  0  0
  9 11  4  0  0  0  0
 11 12  1  0  0  0  0
 12 13  1  0  0  0  0
  7 14  1  0  0  0  0
 14 15  1  0  0  0  0
 15 16  2  0  0  0  0
 15 17  1  0  0  0  0
 17 18  1  0  0  0  0
 15 19  1  0  0  0  0
 19 20  1  0  0  0  0
  1 21  1  0  0  0  0
  1 22  1  0  0  0  0
  1 23  1  0  0  0  0
  2 24  1  0  0  0  0
  2 25  1  0  0  0  0
  6 26  1  0  0  0  0
  6 27  1  0  0  0  0
 12 28  1  0  0  0  0
 12 29  1  0  0  0  0
 13 30  1  0  0  0  0
 13 31  1  0  0  0  0
 13 32  1  0  0  0  0
 18 33  1  0  0  0  0
 18 34  1  0  0  0  0
 18 35  1  0  0  0  0
 20 36  1  0  0  0  0
 20 37  1  0  0  0  0
 20 38  1  0  0  0  0
M  END
