 xtb: 6.7.1 (edcfbbe)
          04092505213D

 41 40  0     0  0            999 V2000
    5.2450    0.2620   -0.2537 C   0  0  0  0  0  0  0  0  0  0  0  0
    4.4383   -1.0109   -0.0840 C   0  0  0  0  0  0  0  0  0  0  0  0
    3.1961   -0.9580   -0.8116 O   0  0  0  0  0  0  0  0  0  0  0  0
    1.8853   -0.2360   -0.2726 P   0  0  0  0  0  0  0  0  0  0  0  0
    1.8890    1.7261   -0.1829 S   0  0  0  0  0  0  0  0  0  0  0  0
    1.6688   -0.9688    1.1286 O   0  0  0  0  0  0  0  0  0  0  0  0
    1.2800   -0.3069    2.3415 C   0  0  0  0  0  0  0  0  0  0  0  0
    2.5009    0.0222    3.1785 C   0  0  0  0  0  0  0  0  0  0  0  0
    0.6402   -1.1262   -1.7187 S   0  0  0  0  0  0  0  0  0  0  0  0
   -0.3766    0.3010   -2.2118 C   0  0  0  0  0  0  0  0  0  0  0  0
   -2.1545    0.1233   -1.8846 S   0  0  0  0  0  0  0  0  0  0  0  0
   -2.1473    0.1455    0.2381 P   0  0  0  0  0  0  0  0  0  0  0  0
   -3.8899    0.2108    1.1235 S   0  0  0  0  0  0  0  0  0  0  0  0
   -1.1205    1.2953    0.6300 O   0  0  0  0  0  0  0  0  0  0  0  0
   -1.5611    2.6412    0.8912 C   0  0  0  0  0  0  0  0  0  0  0  0
   -2.0491    3.3417   -0.3606 C   0  0  0  0  0  0  0  0  0  0  0  0
   -1.2028   -1.0629    0.6686 O   0  0  0  0  0  0  0  0  0  0  0  0
   -1.7317   -2.3798    0.9085 C   0  0  0  0  0  0  0  0  0  0  0  0
   -2.3050   -3.0138   -0.3433 C   0  0  0  0  0  0  0  0  0  0  0  0
    5.4209    0.4546   -1.3086 H   0  0  0  0  0  0  0  0  0  0  0  0
    4.7123    1.1128    0.1665 H   0  0  0  0  0  0  0  0  0  0  0  0
    6.1975    0.1536    0.2555 H   0  0  0  0  0  0  0  0  0  0  0  0
    4.2255   -1.2077    0.9701 H   0  0  0  0  0  0  0  0  0  0  0  0
    4.9577   -1.8677   -0.5173 H   0  0  0  0  0  0  0  0  0  0  0  0
    0.7241    0.6010    2.0948 H   0  0  0  0  0  0  0  0  0  0  0  0
    0.6175   -1.0075    2.8521 H   0  0  0  0  0  0  0  0  0  0  0  0
    3.0702   -0.8796    3.3881 H   0  0  0  0  0  0  0  0  0  0  0  0
    3.1344    0.7322    2.6495 H   0  0  0  0  0  0  0  0  0  0  0  0
    2.1805    0.4675    4.1149 H   0  0  0  0  0  0  0  0  0  0  0  0
   -0.3054    0.4001   -3.2918 H   0  0  0  0  0  0  0  0  0  0  0  0
    0.0128    1.1895   -1.7083 H   0  0  0  0  0  0  0  0  0  0  0  0
   -2.3532    2.6017    1.6452 H   0  0  0  0  0  0  0  0  0  0  0  0
   -0.6753    3.1305    1.3008 H   0  0  0  0  0  0  0  0  0  0  0  0
   -1.2668    3.3616   -1.1158 H   0  0  0  0  0  0  0  0  0  0  0  0
   -2.9223    2.8275   -0.7613 H   0  0  0  0  0  0  0  0  0  0  0  0
   -2.3244    4.3613   -0.1104 H   0  0  0  0  0  0  0  0  0  0  0  0
   -0.8736   -2.9412    1.2827 H   0  0  0  0  0  0  0  0  0  0  0  0
   -2.4981   -2.3031    1.6863 H   0  0  0  0  0  0  0  0  0  0  0  0
   -1.5628   -3.0268   -1.1385 H   0  0  0  0  0  0  0  0  0  0  0  0
   -2.6090   -4.0313   -0.1188 H   0  0  0  0  0  0  0  0  0  0  0  0
   -3.1759   -2.4514   -0.6799 H   0  0  0  0  0  0  0  0  0  0  0  0
  1  2  1  0  0  0  0
  2  3  1  0  0  0  0
  3  4  1  0  0  0  0
  4  5  2  0  0  0  0
  4  6  1  0  0  0  0
  6  7  1  0  0  0  0
  7  8  1  0  0  0  0
  4  9  1  0  0  0  0
  9 10  1  0  0  0  0
 10 11  1  0  0  0  0
 11 12  1  0  0  0  0
 12 13  2  0  0  0  0
 12 14  1  0  0  0  0
 14 15  1  0  0  0  0
 15 16  1  0  0  0  0
 12 17  1  0  0  0  0
 17 18  1  0  0  0  0
 18 19  1  0  0  0  0
  1 20  1  0  0  0  0
  1 21  1  0  0  0  0
  1 22  1  0  0  0  0
  2 23  1  0  0  0  0
  2 24  1  0  0  0  0
  7 25  1  0  0  0  0
  7 26  1  0  0  0  0
  8 27  1  0  0  0  0
  8 28  1  0  0  0  0
  8 29  1  0  0  0  0
 10 30  1  0  0  0  0
 10 31  1  0  0  0  0
 15 32  1  0  0  0  0
 15 33  1  0  0  0  0
 16 34  1  0  0  0  0
 16 35  1  0  0  0  0
 16 36  1  0  0  0  0
 18 37  1  0  0  0  0
 18 38  1  0  0  0  0
 19 39  1  0  0  0  0
 19 40  1  0  0  0  0
 19 41  1  0  0  0  0
M  END
