 xtb: 6.7.1 (edcfbbe)
          04092507313D

 38 37  0     0  0            999 V2000
    3.7006   -3.7358   -0.5425 C   0  0  0  0  0  0  0  0  0  0  0  0
    4.2335   -2.4834   -1.2200 C   0  0  0  0  0  0  0  0  0  0  0  0
    3.1840   -1.8101   -1.9446 O   0  0  0  0  0  0  0  0  0  0  0  0
    2.4208   -0.9593   -1.2965 C   0  0  0  0  0  0  0  0  0  0  0  0
    2.5506   -0.6635   -0.1261 O   0  0  0  0  0  0  0  0  0  0  0  0
    1.3570   -0.3579   -2.1909 C   0  0  0  0  0  0  0  0  0  0  0  0
    0.3012    0.3232   -1.3295 C   0  0  0  0  0  0  0  0  0  0  0  0
   -0.3827    0.9116   -1.9500 H   0  0  0  0  0  0  0  0  0  0  0  0
    0.9760    1.2831   -0.3641 C   0  0  0  0  0  0  0  0  0  0  0  0
    1.7969    2.0884   -0.7457 O   0  0  0  0  0  0  0  0  0  0  0  0
    0.5336    1.1955    0.8725 O   0  0  0  0  0  0  0  0  0  0  0  0
    1.1273    2.0869    1.8394 C   0  0  0  0  0  0  0  0  0  0  0  0
    0.8812    1.5455    3.2324 C   0  0  0  0  0  0  0  0  0  0  0  0
   -0.6891   -0.9325   -0.4579 S   0  0  0  0  0  0  0  0  0  0  0  0
   -2.1279    0.3589    0.4242 P   0  0  0  0  0  0  0  0  0  0  0  0
   -2.2964    2.1572   -0.3337 S   0  0  0  0  0  0  0  0  0  0  0  0
   -3.4661   -0.5165    0.3088 O   0  0  0  0  0  0  0  0  0  0  0  0
   -4.0893   -0.7575   -0.9572 C   0  0  0  0  0  0  0  0  0  0  0  0
   -1.9329    0.3422    1.9901 O   0  0  0  0  0  0  0  0  0  0  0  0
   -1.8334   -0.8967    2.7222 C   0  0  0  0  0  0  0  0  0  0  0  0
    3.2488   -4.3950   -1.2782 H   0  0  0  0  0  0  0  0  0  0  0  0
    4.5175   -4.2528   -0.0503 H   0  0  0  0  0  0  0  0  0  0  0  0
    2.9521   -3.4682    0.1998 H   0  0  0  0  0  0  0  0  0  0  0  0
    4.9763   -2.7251   -1.9799 H   0  0  0  0  0  0  0  0  0  0  0  0
    4.6511   -1.7897   -0.4848 H   0  0  0  0  0  0  0  0  0  0  0  0
    0.9217   -1.1317   -2.8216 H   0  0  0  0  0  0  0  0  0  0  0  0
    1.8391    0.3900   -2.8248 H   0  0  0  0  0  0  0  0  0  0  0  0
    2.1949    2.1545    1.6085 H   0  0  0  0  0  0  0  0  0  0  0  0
    0.6727    3.0730    1.6996 H   0  0  0  0  0  0  0  0  0  0  0  0
    1.2875    0.5416    3.3163 H   0  0  0  0  0  0  0  0  0  0  0  0
    1.3714    2.1931    3.9517 H   0  0  0  0  0  0  0  0  0  0  0  0
   -0.1846    1.5224    3.4376 H   0  0  0  0  0  0  0  0  0  0  0  0
   -3.4868   -1.4550   -1.5388 H   0  0  0  0  0  0  0  0  0  0  0  0
   -4.2072    0.1807   -1.5019 H   0  0  0  0  0  0  0  0  0  0  0  0
   -5.0610   -1.1870   -0.7276 H   0  0  0  0  0  0  0  0  0  0  0  0
   -1.7372   -0.6075    3.7653 H   0  0  0  0  0  0  0  0  0  0  0  0
   -0.9531   -1.4485    2.3928 H   0  0  0  0  0  0  0  0  0  0  0  0
   -2.7297   -1.4938    2.5679 H   0  0  0  0  0  0  0  0  0  0  0  0
  1  2  1  0  0  0  0
  2  3  1  0  0  0  0
  3  4  4  0  0  0  0
  4  5  2  0  0  0  0
  4  6  1  0  0  0  0
  6  7  1  0  0  0  0
  7  8  1  0  0  0  0
  7  9  1  0  0  0  0
  9 10  2  0  0  0  0
  9 11  1  0  0  0  0
 11 12  1  0  0  0  0
 12 13  1  0  0  0  0
  7 14  1  0  0  0  0
 14 15  1  0  0  0  0
 15 16  2  0  0  0  0
 15 17  1  0  0  0  0
 17 18  1  0  0  0  0
 15 19  2  0  0  0  0
 19 20  1  0  0  0  0
  1 21  1  0  0  0  0
  1 22  1  0  0  0  0
  1 23  1  0  0  0  0
  2 24  1  0  0  0  0
  2 25  1  0  0  0  0
  6 26  1  0  0  0  0
  6 27  1  0  0  0  0
 12 28  1  0  0  0  0
 12 29  1  0  0  0  0
 13 30  1  0  0  0  0
 13 31  1  0  0  0  0
 13 32  1  0  0  0  0
 18 33  1  0  0  0  0
 18 34  1  0  0  0  0
 18 35  1  0  0  0  0
 20 36  1  0  0  0  0
 20 37  1  0  0  0  0
 20 38  1  0  0  0  0
M  END
