10
CONF2
C 1.4996535085 0.3319719110 -0.4849691256
C 0.8197245630 -0.2550126464 0.4968426887
C -0.6682475793 -0.3816763032 0.5744731322
O -1.3725036625 0.1713042949 -0.5389762922
H 2.5835094072 0.3872998470 -0.4549236498
H 1.0032263582 0.7724463418 -1.3454788625
H 1.3490230945 -0.6869804628 1.3460730846
H -1.0173827702 0.0672047875 1.5180737170
H -0.9422768845 -1.4432453176 0.6163026416
H -1.1786464443 1.1177504674 -0.5663427934
10
CONF1
C 1.8350463778 0.0023767480 -0.2722720710
C 0.6945766304 0.2886079075 0.3520912082
C -0.5471150331 -0.5350982464 0.2321973003
O -1.6599149331 0.2494779497 -0.2494464558
H 2.7187313600 0.6238383934 -0.1562143386
H 1.9208779544 -0.8712704982 -0.9160978404
H 0.6194993995 1.1701761146 0.9889562795
H -0.8581893079 -0.9026301948 1.2163069281
H -0.3716533545 -1.4017546348 -0.4198380718
H -1.4094800692 0.5877311451 -1.1196293166
10
CONF5
C 1.4875348478 0.3565074970 -0.4994436323
C 0.8192139174 -0.2440062903 0.4826411040
C -0.6599715814 -0.3720408250 0.5870661045
O -1.3081786382 0.2477687825 -0.5289209173
H 2.5723388521 0.3987024885 -0.4849181071
H 0.9824411225 0.8210033707 -1.3405966101
H 1.3606442064 -0.6988407283 1.3111725372
H -0.9924990716 0.0862356139 1.5323298627
H -0.9238392176 -1.4403042550 0.6448910070
H -2.2582758558 0.1375012477 -0.4012421222
10
CONF3
C 1.8603366861 0.1185280297 0.2574714179
C 0.7158085214 0.1041829680 -0.4214470025
C -0.5339386945 -0.5630694124 0.0572899175
O -1.6372046297 0.3666665407 0.1520133539
H 2.7490225604 0.6024199897 -0.1379704579
H 1.9458115087 -0.3644218696 1.2287246501
H 0.6484656303 0.5931714256 -1.3941150202
H -0.3905883318 -0.9729662314 1.0612615628
H -0.8055776868 -1.3888998286 -0.6162277324
H -1.8551076340 0.6451649157 -0.7469505392
10
CONF4
C 1.8636463269 0.1032015238 0.2163480696
C 0.6841600619 0.1912385490 -0.3931001973
C -0.5234009012 -0.5820754942 0.0179213730
O -1.6130355770 0.3449573470 0.2201345276
H 2.7278486502 0.6566422401 -0.1402282848
H 2.0041056268 -0.5344546808 1.0865945542
H 0.5591324282 0.8373289741 -1.2620496079
H -0.3214434454 -1.1507839267 0.9357050273
H -0.7911804660 -1.2935448877 -0.7773011747
H -2.4160139777 -0.1797584637 0.3312351106
