 xtb: 6.7.1 (edcfbbe)
          04092505213D

 41 40  0     0  0            999 V2000
    4.7914    1.7479   -0.4081 C   0  0  0  0  0  0  0  0  0  0  0  0
    4.8200    0.2344   -0.3837 C   0  0  0  0  0  0  0  0  0  0  0  0
    3.8206   -0.3283    0.4879 O   0  0  0  0  0  0  0  0  0  0  0  0
    2.2676   -0.0095    0.4164 P   0  0  0  0  0  0  0  0  0  0  0  0
    1.6140    1.6596    1.2015 S   0  0  0  0  0  0  0  0  0  0  0  0
    1.6348   -1.2308    1.1872 O   0  0  0  0  0  0  0  0  0  0  0  0
    1.9311   -2.6147    0.8798 C   0  0  0  0  0  0  0  0  0  0  0  0
    2.9350   -3.1712    1.8678 C   0  0  0  0  0  0  0  0  0  0  0  0
    1.8226   -0.2894   -1.6545 S   0  0  0  0  0  0  0  0  0  0  0  0
    0.1207    0.2746   -1.5694 C   0  0  0  0  0  0  0  0  0  0  0  0
   -0.9748   -1.0434   -0.9068 S   0  0  0  0  0  0  0  0  0  0  0  0
   -2.5215    0.2153   -0.1843 P   0  0  0  0  0  0  0  0  0  0  0  0
   -4.1172   -0.7259    0.4478 S   0  0  0  0  0  0  0  0  0  0  0  0
   -2.7025    1.2705   -1.3599 O   0  0  0  0  0  0  0  0  0  0  0  0
   -3.3277    0.8931   -2.6049 C   0  0  0  0  0  0  0  0  0  0  0  0
   -4.8087    1.2172   -2.5867 C   0  0  0  0  0  0  0  0  0  0  0  0
   -1.8311    1.2099    0.8362 O   0  0  0  0  0  0  0  0  0  0  0  0
   -1.9766    1.0524    2.2582 C   0  0  0  0  0  0  0  0  0  0  0  0
   -1.3094   -0.2089    2.7679 C   0  0  0  0  0  0  0  0  0  0  0  0
    5.6154    2.1146   -1.0116 H   0  0  0  0  0  0  0  0  0  0  0  0
    3.8540    2.0997   -0.8367 H   0  0  0  0  0  0  0  0  0  0  0  0
    4.8785    2.1460    0.6002 H   0  0  0  0  0  0  0  0  0  0  0  0
    5.7593   -0.1395    0.0275 H   0  0  0  0  0  0  0  0  0  0  0  0
    4.6639   -0.1717   -1.3868 H   0  0  0  0  0  0  0  0  0  0  0  0
    0.9690   -3.1262    0.9505 H   0  0  0  0  0  0  0  0  0  0  0  0
    2.3031   -2.6811   -0.1464 H   0  0  0  0  0  0  0  0  0  0  0  0
    2.5542   -3.0739    2.8807 H   0  0  0  0  0  0  0  0  0  0  0  0
    3.1050   -4.2204    1.6480 H   0  0  0  0  0  0  0  0  0  0  0  0
    3.8748   -2.6302    1.7937 H   0  0  0  0  0  0  0  0  0  0  0  0
   -0.1830    0.5111   -2.5856 H   0  0  0  0  0  0  0  0  0  0  0  0
    0.0582    1.1459   -0.9130 H   0  0  0  0  0  0  0  0  0  0  0  0
   -2.8070    1.4787   -3.3656 H   0  0  0  0  0  0  0  0  0  0  0  0
   -3.1652   -0.1752   -2.7854 H   0  0  0  0  0  0  0  0  0  0  0  0
   -4.9554    2.2708   -2.3668 H   0  0  0  0  0  0  0  0  0  0  0  0
   -5.2372    0.9873   -3.5569 H   0  0  0  0  0  0  0  0  0  0  0  0
   -5.3144    0.6272   -1.8256 H   0  0  0  0  0  0  0  0  0  0  0  0
   -1.5044    1.9471    2.6673 H   0  0  0  0  0  0  0  0  0  0  0  0
   -3.0442    1.0441    2.4981 H   0  0  0  0  0  0  0  0  0  0  0  0
   -1.4160   -0.2601    3.8465 H   0  0  0  0  0  0  0  0  0  0  0  0
   -1.7813   -1.0845    2.3218 H   0  0  0  0  0  0  0  0  0  0  0  0
   -0.2517   -0.2084    2.5138 H   0  0  0  0  0  0  0  0  0  0  0  0
  1  2  1  0  0  0  0
  2  3  1  0  0  0  0
  3  4  2  0  0  0  0
  4  5  2  0  0  0  0
  4  6  2  0  0  0  0
  6  7  1  0  0  0  0
  7  8  1  0  0  0  0
  4  9  1  0  0  0  0
  9 10  1  0  0  0  0
 10 11  1  0  0  0  0
 11 12  1  0  0  0  0
 12 13  2  0  0  0  0
 12 14  2  0  0  0  0
 14 15  1  0  0  0  0
 15 16  1  0  0  0  0
 12 17  2  0  0  0  0
 17 18  1  0  0  0  0
 18 19  1  0  0  0  0
  1 20  1  0  0  0  0
  1 21  1  0  0  0  0
  1 22  1  0  0  0  0
  2 23  1  0  0  0  0
  2 24  1  0  0  0  0
  7 25  1  0  0  0  0
  7 26  1  0  0  0  0
  8 27  1  0  0  0  0
  8 28  1  0  0  0  0
  8 29  1  0  0  0  0
 10 30  1  0  0  0  0
 10 31  1  0  0  0  0
 15 32  1  0  0  0  0
 15 33  1  0  0  0  0
 16 34  1  0  0  0  0
 16 35  1  0  0  0  0
 16 36  1  0  0  0  0
 18 37  1  0  0  0  0
 18 38  1  0  0  0  0
 19 39  1  0  0  0  0
 19 40  1  0  0  0  0
 19 41  1  0  0  0  0
M  END
