 xtb: 6.7.1 (edcfbbe)
          04092505213D

 41 40  0     0  0            999 V2000
    3.8017    1.4757   -1.1600 C   0  0  0  0  0  0  0  0  0  0  0  0
    2.3487    1.6184   -0.7570 C   0  0  0  0  0  0  0  0  0  0  0  0
    1.7517    0.3361   -0.5168 O   0  0  0  0  0  0  0  0  0  0  0  0
    2.0362   -0.5166    0.8056 P   0  0  0  0  0  0  0  0  0  0  0  0
    2.6541    0.5350    2.3311 S   0  0  0  0  0  0  0  0  0  0  0  0
    3.0708   -1.6577    0.4396 O   0  0  0  0  0  0  0  0  0  0  0  0
    2.7981   -2.8307   -0.3625 C   0  0  0  0  0  0  0  0  0  0  0  0
    2.5209   -2.4943   -1.8126 C   0  0  0  0  0  0  0  0  0  0  0  0
    0.2092   -1.5424    1.0211 S   0  0  0  0  0  0  0  0  0  0  0  0
   -0.6608   -0.2231    1.9080 C   0  0  0  0  0  0  0  0  0  0  0  0
   -0.8668    1.3005    0.9454 S   0  0  0  0  0  0  0  0  0  0  0  0
   -1.8512    0.5251   -0.7719 P   0  0  0  0  0  0  0  0  0  0  0  0
   -0.8965   -0.3885   -2.2074 S   0  0  0  0  0  0  0  0  0  0  0  0
   -2.5400    1.8203   -1.3695 O   0  0  0  0  0  0  0  0  0  0  0  0
   -3.4138    2.6954   -0.6137 C   0  0  0  0  0  0  0  0  0  0  0  0
   -2.7105    4.0019   -0.3047 C   0  0  0  0  0  0  0  0  0  0  0  0
   -3.0173   -0.3144   -0.0724 O   0  0  0  0  0  0  0  0  0  0  0  0
   -3.4538   -1.6239   -0.4937 C   0  0  0  0  0  0  0  0  0  0  0  0
   -3.2537   -2.6278    0.6239 C   0  0  0  0  0  0  0  0  0  0  0  0
    3.8850    0.8682   -2.0574 H   0  0  0  0  0  0  0  0  0  0  0  0
    4.2234    2.4579   -1.3478 H   0  0  0  0  0  0  0  0  0  0  0  0
    4.3572    0.9963   -0.3537 H   0  0  0  0  0  0  0  0  0  0  0  0
    1.7427    2.0500   -1.5561 H   0  0  0  0  0  0  0  0  0  0  0  0
    2.2535    2.2254    0.1500 H   0  0  0  0  0  0  0  0  0  0  0  0
    3.7080   -3.4234   -0.2538 H   0  0  0  0  0  0  0  0  0  0  0  0
    1.9538   -3.3647    0.0824 H   0  0  0  0  0  0  0  0  0  0  0  0
    1.6096   -1.9057   -1.9074 H   0  0  0  0  0  0  0  0  0  0  0  0
    3.3484   -1.9293   -2.2338 H   0  0  0  0  0  0  0  0  0  0  0  0
    2.3981   -3.4164   -2.3719 H   0  0  0  0  0  0  0  0  0  0  0  0
   -0.0846    0.0618    2.7890 H   0  0  0  0  0  0  0  0  0  0  0  0
   -1.6360   -0.6186    2.1812 H   0  0  0  0  0  0  0  0  0  0  0  0
   -4.2756    2.8554   -1.2639 H   0  0  0  0  0  0  0  0  0  0  0  0
   -3.7296    2.1856    0.2991 H   0  0  0  0  0  0  0  0  0  0  0  0
   -2.3646    4.4639   -1.2252 H   0  0  0  0  0  0  0  0  0  0  0  0
   -3.4050    4.6704    0.1939 H   0  0  0  0  0  0  0  0  0  0  0  0
   -1.8541    3.8291    0.3440 H   0  0  0  0  0  0  0  0  0  0  0  0
   -4.5109   -1.5157   -0.7442 H   0  0  0  0  0  0  0  0  0  0  0  0
   -2.8936   -1.9119   -1.3893 H   0  0  0  0  0  0  0  0  0  0  0  0
   -3.7686   -2.2987    1.5224 H   0  0  0  0  0  0  0  0  0  0  0  0
   -3.6611   -3.5838    0.3117 H   0  0  0  0  0  0  0  0  0  0  0  0
   -2.1939   -2.7509    0.8401 H   0  0  0  0  0  0  0  0  0  0  0  0
  1  2  1  0  0  0  0
  2  3  1  0  0  0  0
  3  4  1  0  0  0  0
  4  5  2  0  0  0  0
  4  6  2  0  0  0  0
  6  7  1  0  0  0  0
  7  8  1  0  0  0  0
  4  9  1  0  0  0  0
  9 10  1  0  0  0  0
 10 11  1  0  0  0  0
 11 12  1  0  0  0  0
 12 13  2  0  0  0  0
 12 14  2  0  0  0  0
 14 15  1  0  0  0  0
 15 16  1  0  0  0  0
 12 17  2  0  0  0  0
 17 18  1  0  0  0  0
 18 19  1  0  0  0  0
  1 20  1  0  0  0  0
  1 21  1  0  0  0  0
  1 22  1  0  0  0  0
  2 23  1  0  0  0  0
  2 24  1  0  0  0  0
  7 25  1  0  0  0  0
  7 26  1  0  0  0  0
  8 27  1  0  0  0  0
  8 28  1  0  0  0  0
  8 29  1  0  0  0  0
 10 30  1  0  0  0  0
 10 31  1  0  0  0  0
 15 32  1  0  0  0  0
 15 33  1  0  0  0  0
 16 34  1  0  0  0  0
 16 35  1  0  0  0  0
 16 36  1  0  0  0  0
 18 37  1  0  0  0  0
 18 38  1  0  0  0  0
 19 39  1  0  0  0  0
 19 40  1  0  0  0  0
 19 41  1  0  0  0  0
M  END
