 xtb: 6.7.1 (edcfbbe)
          04092514003D

 41 40  0     0  0            999 V2000
    5.4976   -1.2927   -0.6630 C   0  0  0  0  0  0  0  0  0  0  0  0
    4.2088   -2.0894   -0.7187 C   0  0  0  0  0  0  0  0  0  0  0  0
    3.1194   -1.3249   -1.2805 O   0  0  0  0  0  0  0  0  0  0  0  0
    2.2888   -0.2478   -0.4674 P   0  0  0  0  0  0  0  0  0  0  0  0
    3.0731    1.5222   -0.1411 S   0  0  0  0  0  0  0  0  0  0  0  0
    1.8732   -1.0369    0.8566 O   0  0  0  0  0  0  0  0  0  0  0  0
    1.8862   -0.4775    2.1817 C   0  0  0  0  0  0  0  0  0  0  0  0
    3.1110   -0.9577    2.9349 C   0  0  0  0  0  0  0  0  0  0  0  0
    0.5961   -0.3034   -1.7299 S   0  0  0  0  0  0  0  0  0  0  0  0
   -0.1599    1.2502   -1.1657 C   0  0  0  0  0  0  0  0  0  0  0  0
   -0.7424    1.1866    0.5494 S   0  0  0  0  0  0  0  0  0  0  0  0
   -2.6616    0.2895    0.2431 P   0  0  0  0  0  0  0  0  0  0  0  0
   -3.3750    0.4324   -1.5824 S   0  0  0  0  0  0  0  0  0  0  0  0
   -3.5822    0.8966    1.3737 O   0  0  0  0  0  0  0  0  0  0  0  0
   -4.4401    2.0300    1.1548 C   0  0  0  0  0  0  0  0  0  0  0  0
   -3.6611    3.3283    1.0815 C   0  0  0  0  0  0  0  0  0  0  0  0
   -2.5589   -1.1455    0.9073 O   0  0  0  0  0  0  0  0  0  0  0  0
   -1.5974   -2.1567    0.5688 C   0  0  0  0  0  0  0  0  0  0  0  0
   -1.9413   -2.8704   -0.7239 C   0  0  0  0  0  0  0  0  0  0  0  0
    6.2957   -1.9307   -0.2956 H   0  0  0  0  0  0  0  0  0  0  0  0
    5.7581   -0.9277   -1.6530 H   0  0  0  0  0  0  0  0  0  0  0  0
    5.3913   -0.4367    0.0010 H   0  0  0  0  0  0  0  0  0  0  0  0
    3.9177   -2.4369    0.2757 H   0  0  0  0  0  0  0  0  0  0  0  0
    4.3005   -2.9420   -1.3938 H   0  0  0  0  0  0  0  0  0  0  0  0
    1.8755    0.6146    2.1105 H   0  0  0  0  0  0  0  0  0  0  0  0
    0.9628   -0.8196    2.6522 H   0  0  0  0  0  0  0  0  0  0  0  0
    4.0132   -0.5851    2.4539 H   0  0  0  0  0  0  0  0  0  0  0  0
    3.0733   -0.5799    3.9514 H   0  0  0  0  0  0  0  0  0  0  0  0
    3.1400   -2.0437    2.9576 H   0  0  0  0  0  0  0  0  0  0  0  0
   -1.0053    1.4396   -1.8290 H   0  0  0  0  0  0  0  0  0  0  0  0
    0.5779    2.0503   -1.2146 H   0  0  0  0  0  0  0  0  0  0  0  0
   -5.0099    1.8682    0.2339 H   0  0  0  0  0  0  0  0  0  0  0  0
   -5.1141    2.0166    2.0127 H   0  0  0  0  0  0  0  0  0  0  0  0
   -4.3567    4.1609    1.0444 H   0  0  0  0  0  0  0  0  0  0  0  0
   -3.0196    3.4334    1.9526 H   0  0  0  0  0  0  0  0  0  0  0  0
   -3.0434    3.3449    0.1848 H   0  0  0  0  0  0  0  0  0  0  0  0
   -0.6020   -1.7055    0.5064 H   0  0  0  0  0  0  0  0  0  0  0  0
   -1.6313   -2.8414    1.4186 H   0  0  0  0  0  0  0  0  0  0  0  0
   -1.2346   -3.6786   -0.8829 H   0  0  0  0  0  0  0  0  0  0  0  0
   -2.9484   -3.2756   -0.6718 H   0  0  0  0  0  0  0  0  0  0  0  0
   -1.8825   -2.1842   -1.5670 H   0  0  0  0  0  0  0  0  0  0  0  0
  1  2  1  0  0  0  0
  2  3  1  0  0  0  0
  3  4  2  0  0  0  0
  4  5  2  0  0  0  0
  4  6  2  0  0  0  0
  6  7  1  0  0  0  0
  7  8  1  0  0  0  0
  4  9  1  0  0  0  0
  9 10  1  0  0  0  0
 10 11  1  0  0  0  0
 11 12  1  0  0  0  0
 12 13  2  0  0  0  0
 12 14  2  0  0  0  0
 14 15  1  0  0  0  0
 15 16  1  0  0  0  0
 12 17  2  0  0  0  0
 17 18  1  0  0  0  0
 18 19  1  0  0  0  0
  1 20  1  0  0  0  0
  1 21  1  0  0  0  0
  1 22  1  0  0  0  0
  2 23  1  0  0  0  0
  2 24  1  0  0  0  0
  7 25  1  0  0  0  0
  7 26  1  0  0  0  0
  8 27  1  0  0  0  0
  8 28  1  0  0  0  0
  8 29  1  0  0  0  0
 10 30  1  0  0  0  0
 10 31  1  0  0  0  0
 15 32  1  0  0  0  0
 15 33  1  0  0  0  0
 16 34  1  0  0  0  0
 16 35  1  0  0  0  0
 16 36  1  0  0  0  0
 18 37  1  0  0  0  0
 18 38  1  0  0  0  0
 19 39  1  0  0  0  0
 19 40  1  0  0  0  0
 19 41  1  0  0  0  0
M  END
