 xtb: 6.7.1 (edcfbbe)
          04092507313D

 38 37  0     0  0            999 V2000
    3.3491   -3.3902    0.1128 C   0  0  0  0  0  0  0  0  0  0  0  0
    2.9524   -2.0473    0.7047 C   0  0  0  0  0  0  0  0  0  0  0  0
    2.7147   -1.0732   -0.3293 O   0  0  0  0  0  0  0  0  0  0  0  0
    1.5562   -1.0783   -0.9514 C   0  0  0  0  0  0  0  0  0  0  0  0
    0.6412   -1.8413   -0.7134 O   0  0  0  0  0  0  0  0  0  0  0  0
    1.4774    0.0063   -2.0059 C   0  0  0  0  0  0  0  0  0  0  0  0
    0.3355    0.9736   -1.6910 C   0  0  0  0  0  0  0  0  0  0  0  0
    0.2418    1.7021   -2.5025 H   0  0  0  0  0  0  0  0  0  0  0  0
    0.5278    1.7374   -0.3939 C   0  0  0  0  0  0  0  0  0  0  0  0
   -0.4020    2.0003    0.3443 O   0  0  0  0  0  0  0  0  0  0  0  0
    1.7738    2.0622   -0.1862 O   0  0  0  0  0  0  0  0  0  0  0  0
    2.1016    2.7836    1.0208 C   0  0  0  0  0  0  0  0  0  0  0  0
    1.8409    4.2713    0.8560 C   0  0  0  0  0  0  0  0  0  0  0  0
   -1.2976    0.1597   -1.6267 S   0  0  0  0  0  0  0  0  0  0  0  0
   -1.6180   -0.2831    0.4371 P   0  0  0  0  0  0  0  0  0  0  0  0
   -0.2788   -0.5236    1.8499 S   0  0  0  0  0  0  0  0  0  0  0  0
   -2.7356    0.7216    0.9393 O   0  0  0  0  0  0  0  0  0  0  0  0
   -3.9335    1.0137    0.2001 C   0  0  0  0  0  0  0  0  0  0  0  0
   -2.5472   -1.5843    0.2595 O   0  0  0  0  0  0  0  0  0  0  0  0
   -2.0586   -2.8946   -0.0230 C   0  0  0  0  0  0  0  0  0  0  0  0
    2.5279   -3.8003   -0.4706 H   0  0  0  0  0  0  0  0  0  0  0  0
    4.2189   -3.2738   -0.5279 H   0  0  0  0  0  0  0  0  0  0  0  0
    3.5850   -4.0776    0.9182 H   0  0  0  0  0  0  0  0  0  0  0  0
    3.7606   -1.6174    1.2959 H   0  0  0  0  0  0  0  0  0  0  0  0
    2.0492   -2.1329    1.3165 H   0  0  0  0  0  0  0  0  0  0  0  0
    1.2745   -0.4656   -2.9680 H   0  0  0  0  0  0  0  0  0  0  0  0
    2.4220    0.5477   -2.0348 H   0  0  0  0  0  0  0  0  0  0  0  0
    1.5119    2.3670    1.8429 H   0  0  0  0  0  0  0  0  0  0  0  0
    3.1605    2.5751    1.1708 H   0  0  0  0  0  0  0  0  0  0  0  0
    2.3884    4.6551   -0.0003 H   0  0  0  0  0  0  0  0  0  0  0  0
    0.7780    4.4527    0.7129 H   0  0  0  0  0  0  0  0  0  0  0  0
    2.1665    4.7894    1.7518 H   0  0  0  0  0  0  0  0  0  0  0  0
   -3.6792    1.4246   -0.7771 H   0  0  0  0  0  0  0  0  0  0  0  0
   -4.4603    1.7503    0.8011 H   0  0  0  0  0  0  0  0  0  0  0  0
   -4.5281    0.1089    0.0833 H   0  0  0  0  0  0  0  0  0  0  0  0
   -2.9018   -3.5606    0.1422 H   0  0  0  0  0  0  0  0  0  0  0  0
   -1.2347   -3.1402    0.6475 H   0  0  0  0  0  0  0  0  0  0  0  0
   -1.7109   -2.9504   -1.0536 H   0  0  0  0  0  0  0  0  0  0  0  0
  1  2  1  0  0  0  0
  2  3  1  0  0  0  0
  3  4  4  0  0  0  0
  4  5  2  0  0  0  0
  4  6  1  0  0  0  0
  6  7  1  0  0  0  0
  7  8  1  0  0  0  0
  7  9  1  0  0  0  0
  9 10  2  0  0  0  0
  9 11  4  0  0  0  0
 11 12  1  0  0  0  0
 12 13  1  0  0  0  0
  7 14  1  0  0  0  0
 14 15  1  0  0  0  0
 15 16  2  0  0  0  0
 15 17  2  0  0  0  0
 17 18  1  0  0  0  0
 15 19  1  0  0  0  0
 19 20  1  0  0  0  0
  1 21  1  0  0  0  0
  1 22  1  0  0  0  0
  1 23  1  0  0  0  0
  2 24  1  0  0  0  0
  2 25  1  0  0  0  0
  6 26  1  0  0  0  0
  6 27  1  0  0  0  0
 12 28  1  0  0  0  0
 12 29  1  0  0  0  0
 13 30  1  0  0  0  0
 13 31  1  0  0  0  0
 13 32  1  0  0  0  0
 18 33  1  0  0  0  0
 18 34  1  0  0  0  0
 18 35  1  0  0  0  0
 20 36  1  0  0  0  0
 20 37  1  0  0  0  0
 20 38  1  0  0  0  0
M  END
