 xtb: 6.7.1 (edcfbbe)
          04032520243D

 17 17  0     0  0            999 V2000
   -1.8427   -0.0003    0.0818 C   0  0  0  0  0  0  0  0  0  0  0  0
   -1.0585    1.2493   -0.3006 C   0  0  0  0  0  0  0  0  0  0  0  0
    0.3072    1.2645    0.3955 C   0  0  0  0  0  0  0  0  0  0  0  0
    1.0665    0.0001    0.1002 C   0  0  0  0  0  0  0  0  0  0  0  0
    2.1991    0.0000   -0.3440 O   0  0  0  0  0  0  0  0  0  0  0  0
    0.3073   -1.2643    0.3960 C   0  0  0  0  0  0  0  0  0  0  0  0
   -1.0580   -1.2494   -0.3010 C   0  0  0  0  0  0  0  0  0  0  0  0
   -2.8054   -0.0003   -0.4310 H   0  0  0  0  0  0  0  0  0  0  0  0
   -2.0320   -0.0005    1.1567 H   0  0  0  0  0  0  0  0  0  0  0  0
   -0.9084    1.2703   -1.3821 H   0  0  0  0  0  0  0  0  0  0  0  0
   -1.6116    2.1466   -0.0209 H   0  0  0  0  0  0  0  0  0  0  0  0
    0.8989    2.1247    0.0792 H   0  0  0  0  0  0  0  0  0  0  0  0
    0.1585    1.3204    1.4758 H   0  0  0  0  0  0  0  0  0  0  0  0
    0.8993   -2.1246    0.0805 H   0  0  0  0  0  0  0  0  0  0  0  0
    0.1579   -1.3196    1.4762 H   0  0  0  0  0  0  0  0  0  0  0  0
   -0.9072   -1.2696   -1.3825 H   0  0  0  0  0  0  0  0  0  0  0  0
   -1.6109   -2.1470   -0.0222 H   0  0  0  0  0  0  0  0  0  0  0  0
  1  2  1  0  0  0  0
  2  3  1  0  0  0  0
  3  4  1  0  0  0  0
  4  5  2  0  0  0  0
  4  6  1  0  0  0  0
  1  7  1  0  0  0  0
  6  7  1  0  0  0  0
  1  8  1  0  0  0  0
  1  9  1  0  0  0  0
  2 10  1  0  0  0  0
  2 11  1  0  0  0  0
  3 12  1  0  0  0  0
  3 13  1  0  0  0  0
  6 14  1  0  0  0  0
  6 15  1  0  0  0  0
  7 16  1  0  0  0  0
  7 17  1  0  0  0  0
M  END
