 xtb: 6.7.1 (edcfbbe)
          04092505213D

 41 40  0     0  0            999 V2000
    4.3023   -2.8886   -1.4267 C   0  0  0  0  0  0  0  0  0  0  0  0
    3.1164   -2.3015   -0.6913 C   0  0  0  0  0  0  0  0  0  0  0  0
    3.3719   -0.8840   -0.5057 O   0  0  0  0  0  0  0  0  0  0  0  0
    2.2483    0.1517   -0.1299 P   0  0  0  0  0  0  0  0  0  0  0  0
    2.9201    1.9728    0.0636 S   0  0  0  0  0  0  0  0  0  0  0  0
    1.5987   -0.4927    1.1767 O   0  0  0  0  0  0  0  0  0  0  0  0
    1.0941    0.2529    2.2989 C   0  0  0  0  0  0  0  0  0  0  0  0
    1.8788   -0.1219    3.5404 C   0  0  0  0  0  0  0  0  0  0  0  0
    0.8100   -0.1662   -1.6873 S   0  0  0  0  0  0  0  0  0  0  0  0
    0.0500    1.4707   -1.6284 C   0  0  0  0  0  0  0  0  0  0  0  0
   -0.8456    1.7871   -0.0873 S   0  0  0  0  0  0  0  0  0  0  0  0
   -2.2404    0.1985   -0.2871 P   0  0  0  0  0  0  0  0  0  0  0  0
   -2.8867   -0.1672   -2.0925 S   0  0  0  0  0  0  0  0  0  0  0  0
   -3.4309    0.5726    0.6859 O   0  0  0  0  0  0  0  0  0  0  0  0
   -3.3307    0.6551    2.1291 C   0  0  0  0  0  0  0  0  0  0  0  0
   -2.9765    2.0568    2.5825 C   0  0  0  0  0  0  0  0  0  0  0  0
   -1.4409   -0.9824    0.4414 O   0  0  0  0  0  0  0  0  0  0  0  0
   -1.4807   -2.3445   -0.0214 C   0  0  0  0  0  0  0  0  0  0  0  0
   -2.7755   -3.0190    0.3832 C   0  0  0  0  0  0  0  0  0  0  0  0
    4.4080   -2.4189   -2.4005 H   0  0  0  0  0  0  0  0  0  0  0  0
    5.2124   -2.7213   -0.8578 H   0  0  0  0  0  0  0  0  0  0  0  0
    4.1487   -3.9549   -1.5571 H   0  0  0  0  0  0  0  0  0  0  0  0
    2.9903   -2.7503    0.2957 H   0  0  0  0  0  0  0  0  0  0  0  0
    2.1929   -2.4157   -1.2662 H   0  0  0  0  0  0  0  0  0  0  0  0
    1.1835    1.3237    2.0895 H   0  0  0  0  0  0  0  0  0  0  0  0
    0.0390   -0.0127    2.3938 H   0  0  0  0  0  0  0  0  0  0  0  0
    1.8174   -1.1918    3.7172 H   0  0  0  0  0  0  0  0  0  0  0  0
    2.9225    0.1574    3.4163 H   0  0  0  0  0  0  0  0  0  0  0  0
    1.4680    0.4090    4.3929 H   0  0  0  0  0  0  0  0  0  0  0  0
   -0.6428    1.5184   -2.4680 H   0  0  0  0  0  0  0  0  0  0  0  0
    0.8210    2.2378   -1.6990 H   0  0  0  0  0  0  0  0  0  0  0  0
   -4.3254    0.3686    2.4748 H   0  0  0  0  0  0  0  0  0  0  0  0
   -2.5941   -0.0736    2.4749 H   0  0  0  0  0  0  0  0  0  0  0  0
   -1.9809    2.3339    2.2413 H   0  0  0  0  0  0  0  0  0  0  0  0
   -3.6909    2.7696    2.1802 H   0  0  0  0  0  0  0  0  0  0  0  0
   -3.0039    2.0958    3.6670 H   0  0  0  0  0  0  0  0  0  0  0  0
   -1.3639   -2.3489   -1.1096 H   0  0  0  0  0  0  0  0  0  0  0  0
   -0.6115   -2.8113    0.4450 H   0  0  0  0  0  0  0  0  0  0  0  0
   -2.7674   -4.0485    0.0398 H   0  0  0  0  0  0  0  0  0  0  0  0
   -2.8954   -3.0002    1.4632 H   0  0  0  0  0  0  0  0  0  0  0  0
   -3.6162   -2.4998   -0.0764 H   0  0  0  0  0  0  0  0  0  0  0  0
  1  2  1  0  0  0  0
  2  3  1  0  0  0  0
  3  4  2  0  0  0  0
  4  5  2  0  0  0  0
  4  6  2  0  0  0  0
  6  7  1  0  0  0  0
  7  8  1  0  0  0  0
  4  9  1  0  0  0  0
  9 10  1  0  0  0  0
 10 11  1  0  0  0  0
 11 12  1  0  0  0  0
 12 13  2  0  0  0  0
 12 14  2  0  0  0  0
 14 15  1  0  0  0  0
 15 16  1  0  0  0  0
 12 17  1  0  0  0  0
 17 18  1  0  0  0  0
 18 19  1  0  0  0  0
  1 20  1  0  0  0  0
  1 21  1  0  0  0  0
  1 22  1  0  0  0  0
  2 23  1  0  0  0  0
  2 24  1  0  0  0  0
  7 25  1  0  0  0  0
  7 26  1  0  0  0  0
  8 27  1  0  0  0  0
  8 28  1  0  0  0  0
  8 29  1  0  0  0  0
 10 30  1  0  0  0  0
 10 31  1  0  0  0  0
 15 32  1  0  0  0  0
 15 33  1  0  0  0  0
 16 34  1  0  0  0  0
 16 35  1  0  0  0  0
 16 36  1  0  0  0  0
 18 37  1  0  0  0  0
 18 38  1  0  0  0  0
 19 39  1  0  0  0  0
 19 40  1  0  0  0  0
 19 41  1  0  0  0  0
M  END
