  21
 
 C         -3.6942738278       -0.2636548215       -0.0020207095
 C         -2.3882839751        0.5205845204        0.0001055289
 C         -1.1802145591       -0.4090411311       -0.0005425216
 O         -0.0000459953        0.3686180576       -0.0000948776
 C          1.1800265472       -0.4090920572        0.0005185992
 C          2.3881579044        0.5204715611       -0.0002226692
 C          3.6941033988       -0.2638342726        0.0022978639
 H         -4.5406231778        0.4170889019       -0.0000987425
 H         -3.7581872045       -0.8938053612       -0.8858677162
 H         -3.7580984390       -0.8987686335        0.8782832540
 H         -2.3308281574        1.1597159165        0.8821088682
 H         -2.3295346653        1.1624833173       -0.8797986118
 H         -1.1965888886       -1.0581753612        0.8894204365
 H         -1.1966241395       -1.0570511439       -0.8913290870
 H          1.1964351276       -1.0583849449       -0.8893381435
 H          1.1964170006       -1.0569805456        0.8914038111
 H          2.3308550337        1.1593597079       -0.8824190452
 H          2.3293082449        1.1626108046        0.8794972722
 H          4.5404995238        0.4168459290        0.0004252230
 H          3.7577977802       -0.8938506191        0.8862729528
 H          3.7580754934       -0.8991154099       -0.8778678220
          21
        -24.05217540
 C         -3.6975538645        0.2507951101        0.0021415348
 C         -2.3846191154       -0.5212721954       -0.0001094394
 C         -1.1821242631        0.4155315956       -0.0012512517
 O         -0.0000037059       -0.3603170650       -0.0028082293
 C          1.1821753880        0.4155543661       -0.0007190892
 C          2.3846277745       -0.5213289992        0.0018970885
 C          3.6974950909        0.2508266997        0.0008099612
 H         -4.5367310287       -0.4387239067        0.0038993969
 H         -3.7663881019        0.8827561919        0.8843041749
 H         -3.7697854831        0.8824921331       -0.8799560093
 H         -2.3221353159       -1.1609604202       -0.8814309105
 H         -2.3195831065       -1.1618018179        0.8804220854
 H         -1.2015726145        1.0640994378       -0.8914619563
 H         -1.1994040761        1.0634645475        0.8894610291
 H          1.1987492504        1.0639549459        0.8896755560
 H          1.2023315257        1.0635062172       -0.8913438963
 H          2.3206018086       -1.1594215167        0.8843134372
 H          2.3212487394       -1.1634732173       -0.8776673638
 H          4.5367224886       -0.4385555923        0.0025704997
 H          3.7682660148        0.8805487995       -0.8826441535
 H          3.7677266868        0.8846271013        0.8814404851
