 xtb: 6.7.1 (edcfbbe)
          04092505213D

 41 40  0     0  0            999 V2000
    4.8367   -0.5314   -1.8659 C   0  0  0  0  0  0  0  0  0  0  0  0
    4.1824   -1.7582   -1.2644 C   0  0  0  0  0  0  0  0  0  0  0  0
    3.4541   -1.4714   -0.0573 O   0  0  0  0  0  0  0  0  0  0  0  0
    2.3586   -0.3363    0.1211 P   0  0  0  0  0  0  0  0  0  0  0  0
    2.9897    1.5099    0.3640 S   0  0  0  0  0  0  0  0  0  0  0  0
    1.5422   -0.9124    1.3508 O   0  0  0  0  0  0  0  0  0  0  0  0
    1.7309   -0.4289    2.6938 C   0  0  0  0  0  0  0  0  0  0  0  0
    3.0438   -0.9181    3.2678 C   0  0  0  0  0  0  0  0  0  0  0  0
    1.0210   -0.6702   -1.4835 S   0  0  0  0  0  0  0  0  0  0  0  0
    0.1284    0.8999   -1.3153 C   0  0  0  0  0  0  0  0  0  0  0  0
   -0.7957    1.0432    0.2320 S   0  0  0  0  0  0  0  0  0  0  0  0
   -2.7429    0.4577   -0.4446 P   0  0  0  0  0  0  0  0  0  0  0  0
   -2.9017   -0.0499   -2.3268 S   0  0  0  0  0  0  0  0  0  0  0  0
   -3.6598    1.6962   -0.1117 O   0  0  0  0  0  0  0  0  0  0  0  0
   -3.5495    2.5808    1.0285 C   0  0  0  0  0  0  0  0  0  0  0  0
   -3.5430    1.8389    2.3470 C   0  0  0  0  0  0  0  0  0  0  0  0
   -3.2616   -0.6355    0.5904 O   0  0  0  0  0  0  0  0  0  0  0  0
   -3.0987   -2.0475    0.3880 C   0  0  0  0  0  0  0  0  0  0  0  0
   -1.6482   -2.4776    0.4675 C   0  0  0  0  0  0  0  0  0  0  0  0
    5.4663   -0.0365   -1.1301 H   0  0  0  0  0  0  0  0  0  0  0  0
    5.4424   -0.8262   -2.7168 H   0  0  0  0  0  0  0  0  0  0  0  0
    4.0773    0.1745   -2.2003 H   0  0  0  0  0  0  0  0  0  0  0  0
    4.9263   -2.4913   -0.9470 H   0  0  0  0  0  0  0  0  0  0  0  0
    3.4911   -2.2167   -1.9773 H   0  0  0  0  0  0  0  0  0  0  0  0
    1.6934    0.6654    2.6815 H   0  0  0  0  0  0  0  0  0  0  0  0
    0.8746   -0.8209    3.2437 H   0  0  0  0  0  0  0  0  0  0  0  0
    3.0908   -2.0028    3.2266 H   0  0  0  0  0  0  0  0  0  0  0  0
    3.8694   -0.5099    2.6854 H   0  0  0  0  0  0  0  0  0  0  0  0
    3.1373   -0.5872    4.2972 H   0  0  0  0  0  0  0  0  0  0  0  0
   -0.5630    0.9530   -2.1576 H   0  0  0  0  0  0  0  0  0  0  0  0
    0.8488    1.7171   -1.3291 H   0  0  0  0  0  0  0  0  0  0  0  0
   -2.6387    3.1740    0.9121 H   0  0  0  0  0  0  0  0  0  0  0  0
   -4.4253    3.2237    0.9291 H   0  0  0  0  0  0  0  0  0  0  0  0
   -3.5452    2.5586    3.1598 H   0  0  0  0  0  0  0  0  0  0  0  0
   -4.4194    1.2011    2.4256 H   0  0  0  0  0  0  0  0  0  0  0  0
   -2.6489    1.2223    2.4226 H   0  0  0  0  0  0  0  0  0  0  0  0
   -3.6949   -2.4943    1.1851 H   0  0  0  0  0  0  0  0  0  0  0  0
   -3.5221   -2.3111   -0.5864 H   0  0  0  0  0  0  0  0  0  0  0  0
   -1.5916   -3.5612    0.4546 H   0  0  0  0  0  0  0  0  0  0  0  0
   -1.0969   -2.0929   -0.3896 H   0  0  0  0  0  0  0  0  0  0  0  0
   -1.1864   -2.1053    1.3789 H   0  0  0  0  0  0  0  0  0  0  0  0
  1  2  1  0  0  0  0
  2  3  1  0  0  0  0
  3  4  2  0  0  0  0
  4  5  2  0  0  0  0
  4  6  2  0  0  0  0
  6  7  1  0  0  0  0
  7  8  1  0  0  0  0
  4  9  1  0  0  0  0
  9 10  1  0  0  0  0
 10 11  1  0  0  0  0
 11 12  1  0  0  0  0
 12 13  2  0  0  0  0
 12 14  2  0  0  0  0
 14 15  1  0  0  0  0
 15 16  1  0  0  0  0
 12 17  2  0  0  0  0
 17 18  1  0  0  0  0
 18 19  1  0  0  0  0
  1 20  1  0  0  0  0
  1 21  1  0  0  0  0
  1 22  1  0  0  0  0
  2 23  1  0  0  0  0
  2 24  1  0  0  0  0
  7 25  1  0  0  0  0
  7 26  1  0  0  0  0
  8 27  1  0  0  0  0
  8 28  1  0  0  0  0
  8 29  1  0  0  0  0
 10 30  1  0  0  0  0
 10 31  1  0  0  0  0
 15 32  1  0  0  0  0
 15 33  1  0  0  0  0
 16 34  1  0  0  0  0
 16 35  1  0  0  0  0
 16 36  1  0  0  0  0
 18 37  1  0  0  0  0
 18 38  1  0  0  0  0
 19 39  1  0  0  0  0
 19 40  1  0  0  0  0
 19 41  1  0  0  0  0
M  END
