 xtb: 6.7.1 (edcfbbe)
          04092505203D

 41 40  0     0  0            999 V2000
    2.6919    1.0395   -2.9334 C   0  0  0  0  0  0  0  0  0  0  0  0
    2.7657   -0.3255   -2.2805 C   0  0  0  0  0  0  0  0  0  0  0  0
    3.1812   -0.2280   -0.9069 O   0  0  0  0  0  0  0  0  0  0  0  0
    2.2898    0.1335    0.3541 P   0  0  0  0  0  0  0  0  0  0  0  0
    1.4460    1.8947    0.4994 S   0  0  0  0  0  0  0  0  0  0  0  0
    3.3550    0.0098    1.5091 O   0  0  0  0  0  0  0  0  0  0  0  0
    4.1735   -1.1660    1.7402 C   0  0  0  0  0  0  0  0  0  0  0  0
    3.7086   -1.8879    2.9895 C   0  0  0  0  0  0  0  0  0  0  0  0
    1.0058   -1.5548    0.5573 S   0  0  0  0  0  0  0  0  0  0  0  0
   -0.2268   -0.7875    1.6592 C   0  0  0  0  0  0  0  0  0  0  0  0
   -1.9353   -1.0340    1.1136 S   0  0  0  0  0  0  0  0  0  0  0  0
   -2.0118    0.3259   -0.5229 P   0  0  0  0  0  0  0  0  0  0  0  0
   -0.7227    0.1291   -1.9795 S   0  0  0  0  0  0  0  0  0  0  0  0
   -1.9264    1.7650    0.1125 O   0  0  0  0  0  0  0  0  0  0  0  0
   -2.5581    2.2298    1.3278 C   0  0  0  0  0  0  0  0  0  0  0  0
   -4.0692    2.1864    1.2561 C   0  0  0  0  0  0  0  0  0  0  0  0
   -3.5249    0.2058   -0.9946 O   0  0  0  0  0  0  0  0  0  0  0  0
   -3.9474   -0.7394   -1.9925 C   0  0  0  0  0  0  0  0  0  0  0  0
   -3.8092   -2.1717   -1.5187 C   0  0  0  0  0  0  0  0  0  0  0  0
    1.8966    1.6287   -2.4803 H   0  0  0  0  0  0  0  0  0  0  0  0
    3.6340    1.5678   -2.8133 H   0  0  0  0  0  0  0  0  0  0  0  0
    2.4722    0.9179   -3.9890 H   0  0  0  0  0  0  0  0  0  0  0  0
    3.5370   -0.9453   -2.7418 H   0  0  0  0  0  0  0  0  0  0  0  0
    1.7990   -0.8320   -2.3373 H   0  0  0  0  0  0  0  0  0  0  0  0
    4.1282   -1.8144    0.8632 H   0  0  0  0  0  0  0  0  0  0  0  0
    5.1867   -0.7791    1.8580 H   0  0  0  0  0  0  0  0  0  0  0  0
    2.7219   -2.3179    2.8369 H   0  0  0  0  0  0  0  0  0  0  0  0
    4.4095   -2.6843    3.2185 H   0  0  0  0  0  0  0  0  0  0  0  0
    3.6688   -1.1941    3.8247 H   0  0  0  0  0  0  0  0  0  0  0  0
   -0.0026    0.2819    1.7138 H   0  0  0  0  0  0  0  0  0  0  0  0
   -0.1632   -1.2601    2.6358 H   0  0  0  0  0  0  0  0  0  0  0  0
   -2.1928    1.6280    2.1644 H   0  0  0  0  0  0  0  0  0  0  0  0
   -2.1823    3.2502    1.4226 H   0  0  0  0  0  0  0  0  0  0  0  0
   -4.4163    1.1567    1.2153 H   0  0  0  0  0  0  0  0  0  0  0  0
   -4.4767    2.6650    2.1413 H   0  0  0  0  0  0  0  0  0  0  0  0
   -4.4180    2.7111    0.3706 H   0  0  0  0  0  0  0  0  0  0  0  0
   -4.9887   -0.4724   -2.1776 H   0  0  0  0  0  0  0  0  0  0  0  0
   -3.3541   -0.5753   -2.8977 H   0  0  0  0  0  0  0  0  0  0  0  0
   -4.2515   -2.8366   -2.2535 H   0  0  0  0  0  0  0  0  0  0  0  0
   -2.7559   -2.4249   -1.4045 H   0  0  0  0  0  0  0  0  0  0  0  0
   -4.3082   -2.3053   -0.5622 H   0  0  0  0  0  0  0  0  0  0  0  0
  1  2  1  0  0  0  0
  2  3  1  0  0  0  0
  3  4  2  0  0  0  0
  4  5  2  0  0  0  0
  4  6  2  0  0  0  0
  6  7  1  0  0  0  0
  7  8  1  0  0  0  0
  4  9  1  0  0  0  0
  9 10  1  0  0  0  0
 10 11  1  0  0  0  0
 11 12  1  0  0  0  0
 12 13  2  0  0  0  0
 12 14  2  0  0  0  0
 14 15  1  0  0  0  0
 15 16  1  0  0  0  0
 12 17  2  0  0  0  0
 17 18  1  0  0  0  0
 18 19  1  0  0  0  0
  1 20  1  0  0  0  0
  1 21  1  0  0  0  0
  1 22  1  0  0  0  0
  2 23  1  0  0  0  0
  2 24  1  0  0  0  0
  7 25  1  0  0  0  0
  7 26  1  0  0  0  0
  8 27  1  0  0  0  0
  8 28  1  0  0  0  0
  8 29  1  0  0  0  0
 10 30  1  0  0  0  0
 10 31  1  0  0  0  0
 15 32  1  0  0  0  0
 15 33  1  0  0  0  0
 16 34  1  0  0  0  0
 16 35  1  0  0  0  0
 16 36  1  0  0  0  0
 18 37  1  0  0  0  0
 18 38  1  0  0  0  0
 19 39  1  0  0  0  0
 19 40  1  0  0  0  0
 19 41  1  0  0  0  0
M  END
