 xtb: 6.7.1 (edcfbbe)
          04092507313D

 38 37  0     0  0            999 V2000
    5.4536   -1.8158   -0.8894 C   0  0  0  0  0  0  0  0  0  0  0  0
    4.2208   -2.6981   -1.0042 C   0  0  0  0  0  0  0  0  0  0  0  0
    3.1889   -2.0393   -1.7657 O   0  0  0  0  0  0  0  0  0  0  0  0
    2.3642   -1.2314   -1.1366 C   0  0  0  0  0  0  0  0  0  0  0  0
    2.3756   -1.0244    0.0594 O   0  0  0  0  0  0  0  0  0  0  0  0
    1.3869   -0.5724   -2.0878 C   0  0  0  0  0  0  0  0  0  0  0  0
    0.3195    0.1625   -1.2889 C   0  0  0  0  0  0  0  0  0  0  0  0
   -0.2863    0.7992   -1.9415 H   0  0  0  0  0  0  0  0  0  0  0  0
    0.9867    1.0571   -0.2547 C   0  0  0  0  0  0  0  0  0  0  0  0
    1.9377    1.7536   -0.5302 O   0  0  0  0  0  0  0  0  0  0  0  0
    0.3635    1.0416    0.9024 O   0  0  0  0  0  0  0  0  0  0  0  0
    0.9137    1.7809    2.0099 C   0  0  0  0  0  0  0  0  0  0  0  0
    1.4669    0.8048    3.0331 C   0  0  0  0  0  0  0  0  0  0  0  0
   -0.8052   -1.0535   -0.5050 S   0  0  0  0  0  0  0  0  0  0  0  0
   -2.2003    0.2739    0.3177 P   0  0  0  0  0  0  0  0  0  0  0  0
   -2.3138    2.0945   -0.4278 S   0  0  0  0  0  0  0  0  0  0  0  0
   -3.5888   -0.5178    0.1727 O   0  0  0  0  0  0  0  0  0  0  0  0
   -4.2882   -0.5812   -1.0744 C   0  0  0  0  0  0  0  0  0  0  0  0
   -1.9935    0.1341    1.8854 O   0  0  0  0  0  0  0  0  0  0  0  0
   -2.8773    0.8192    2.7890 C   0  0  0  0  0  0  0  0  0  0  0  0
    6.2297   -2.3495   -0.3509 H   0  0  0  0  0  0  0  0  0  0  0  0
    5.8185   -1.5514   -1.8779 H   0  0  0  0  0  0  0  0  0  0  0  0
    5.2109   -0.9035   -0.3482 H   0  0  0  0  0  0  0  0  0  0  0  0
    3.8227   -2.9410   -0.0150 H   0  0  0  0  0  0  0  0  0  0  0  0
    4.4327   -3.6085   -1.5647 H   0  0  0  0  0  0  0  0  0  0  0  0
    0.9478   -1.3226   -2.7438 H   0  0  0  0  0  0  0  0  0  0  0  0
    1.9458    0.1448   -2.6929 H   0  0  0  0  0  0  0  0  0  0  0  0
    1.6905    2.4454    1.6216 H   0  0  0  0  0  0  0  0  0  0  0  0
    0.0860    2.3676    2.4137 H   0  0  0  0  0  0  0  0  0  0  0  0
    1.8828    1.3551    3.8702 H   0  0  0  0  0  0  0  0  0  0  0  0
    0.6757    0.1472    3.3833 H   0  0  0  0  0  0  0  0  0  0  0  0
    2.2439    0.1971    2.5744 H   0  0  0  0  0  0  0  0  0  0  0  0
   -3.7945   -1.2883   -1.7401 H   0  0  0  0  0  0  0  0  0  0  0  0
   -4.3192    0.4077   -1.5357 H   0  0  0  0  0  0  0  0  0  0  0  0
   -5.2926   -0.9192   -0.8324 H   0  0  0  0  0  0  0  0  0  0  0  0
   -3.8427    0.3154    2.8143 H   0  0  0  0  0  0  0  0  0  0  0  0
   -3.0106    1.8560    2.4741 H   0  0  0  0  0  0  0  0  0  0  0  0
   -2.3943    0.7749    3.7620 H   0  0  0  0  0  0  0  0  0  0  0  0
  1  2  1  0  0  0  0
  2  3  1  0  0  0  0
  3  4  4  0  0  0  0
  4  5  2  0  0  0  0
  4  6  1  0  0  0  0
  6  7  1  0  0  0  0
  7  8  1  0  0  0  0
  7  9  1  0  0  0  0
  9 10  2  0  0  0  0
  9 11  1  0  0  0  0
 11 12  1  0  0  0  0
 12 13  1  0  0  0  0
  7 14  1  0  0  0  0
 14 15  1  0  0  0  0
 15 16  2  0  0  0  0
 15 17  1  0  0  0  0
 17 18  1  0  0  0  0
 15 19  1  0  0  0  0
 19 20  1  0  0  0  0
  1 21  1  0  0  0  0
  1 22  1  0  0  0  0
  1 23  1  0  0  0  0
  2 24  1  0  0  0  0
  2 25  1  0  0  0  0
  6 26  1  0  0  0  0
  6 27  1  0  0  0  0
 12 28  1  0  0  0  0
 12 29  1  0  0  0  0
 13 30  1  0  0  0  0
 13 31  1  0  0  0  0
 13 32  1  0  0  0  0
 18 33  1  0  0  0  0
 18 34  1  0  0  0  0
 18 35  1  0  0  0  0
 20 36  1  0  0  0  0
 20 37  1  0  0  0  0
 20 38  1  0  0  0  0
M  END
