41
 xtb: 6.7.1 (edcfbbe)
C            5.04960167387569       -1.55484779182228       -1.30829115456669
C            5.05740055698296       -0.20590643392958       -0.63408045480330
O            3.83740887555090        0.02237884859621        0.15440649975406
P            2.43670419011668        0.47027991327161       -0.50018046601904
S            2.51507608404153        1.51316272213181       -2.14366620256807
O            1.71304407121210        1.16293920641455        0.75821029938390
C            2.04180801504464        2.55561597253031        1.11274550402425
C            1.23038726209048        2.90743923504662        2.33174066785330
S            1.41435927545007       -1.37702193439250       -0.59969470903923
C           -0.06974670781484       -0.90553649167156       -1.60815696798844
S           -1.61061497282311       -1.65697125443171       -0.97488071896682
P           -2.51512506689254       -0.08926205751875        0.16609576393159
S           -1.96417599956351        1.70789377614650       -0.33171484838118
O           -2.36787519740706       -0.50751661352344        1.71013802091332
C           -1.05556559908790       -0.37512625962150        2.35957732092311
C           -1.08909878269209       -1.20415308454278        3.61590578885738
O           -4.06600478960841       -0.48326391133962        0.03776710714562
C           -4.81909078280444       -0.11996351250613       -1.17298093670375
C           -6.20910870528329       -0.67598089812610       -1.01115790562812
H            4.88539591530111       -2.35623034765759       -0.58205568783481
H            4.28252999108394       -1.61337660440616       -2.08566265767382
H            6.02506960131873       -1.71223232615634       -1.78016495662071
H            5.15905276516536        0.61228701330119       -1.35304357494881
H            5.85554389839759       -0.13106060879212        0.10715850375248
H            3.11779020680950        2.61641706727978        1.30645048153590
H            1.78958636862119        3.19195811624977        0.25922121159440
H            0.15956710729671        2.83848633748412        2.11914172858178
H            1.47417083071165        2.25094095465374        3.17180850977291
H            1.45934172781682        3.93801926272473        2.62043121625934
H            0.06986432882000       -1.28475980550321       -2.62254048728315
H           -0.18390450764100        0.18309212177578       -1.63485346329212
H           -0.28036210808052       -0.73009141877337        1.67069044286235
H           -0.89243414810003        0.68594658730354        2.56871419549910
H           -1.87751529908133       -0.86194990263848        4.29229022695201
H           -1.24902934515921       -2.26064002460933        3.38251678802197
H           -0.12702053038816       -1.10419889921884        4.12790280979842
H           -4.82193897590872        0.97065333291901       -1.25546677890525
H           -4.30828243922655       -0.54865291139070       -2.04162818940061
H           -6.69699823457567       -0.25626399729463       -0.12690504288162
H           -6.79931583014630       -0.40577529329918       -1.89211402010298
H           -6.19026619939226       -1.76617306784957       -0.92822056791772
