 xtb: 6.7.1 (edcfbbe)
          04092507313D

 38 37  0     0  0            999 V2000
    4.3027   -1.9997    1.0544 C   0  0  0  0  0  0  0  0  0  0  0  0
    2.8096   -1.9227    0.8050 C   0  0  0  0  0  0  0  0  0  0  0  0
    2.5842   -1.0129   -0.2897 O   0  0  0  0  0  0  0  0  0  0  0  0
    1.4534   -1.0786   -0.9485 C   0  0  0  0  0  0  0  0  0  0  0  0
    0.5483   -1.8550   -0.6980 O   0  0  0  0  0  0  0  0  0  0  0  0
    1.3885   -0.0716   -2.0769 C   0  0  0  0  0  0  0  0  0  0  0  0
    0.2072    0.8808   -1.8775 C   0  0  0  0  0  0  0  0  0  0  0  0
    0.1010    1.5165   -2.7618 H   0  0  0  0  0  0  0  0  0  0  0  0
    0.3620    1.7779   -0.6604 C   0  0  0  0  0  0  0  0  0  0  0  0
   -0.5547    1.9817    0.1112 O   0  0  0  0  0  0  0  0  0  0  0  0
    1.5569    2.2911   -0.5798 O   0  0  0  0  0  0  0  0  0  0  0  0
    1.8960    3.1097    0.5613 C   0  0  0  0  0  0  0  0  0  0  0  0
    2.5493    2.2579    1.6364 C   0  0  0  0  0  0  0  0  0  0  0  0
   -1.3974    0.0290   -1.7450 S   0  0  0  0  0  0  0  0  0  0  0  0
   -1.5910   -0.4452    0.3359 P   0  0  0  0  0  0  0  0  0  0  0  0
   -0.2969   -0.3424    1.8058 S   0  0  0  0  0  0  0  0  0  0  0  0
   -2.9848    0.2762    0.6901 O   0  0  0  0  0  0  0  0  0  0  0  0
   -3.1468    1.5811    1.2386 C   0  0  0  0  0  0  0  0  0  0  0  0
   -2.1174   -1.9411    0.2866 O   0  0  0  0  0  0  0  0  0  0  0  0
   -3.1124   -2.4170   -0.6327 C   0  0  0  0  0  0  0  0  0  0  0  0
    4.6879   -1.0169    1.3075 H   0  0  0  0  0  0  0  0  0  0  0  0
    4.4891   -2.6785    1.8796 H   0  0  0  0  0  0  0  0  0  0  0  0
    4.8130   -2.3632    0.1674 H   0  0  0  0  0  0  0  0  0  0  0  0
    2.2683   -1.5402    1.6762 H   0  0  0  0  0  0  0  0  0  0  0  0
    2.3835   -2.8949    0.5379 H   0  0  0  0  0  0  0  0  0  0  0  0
    1.2383   -0.6177   -3.0091 H   0  0  0  0  0  0  0  0  0  0  0  0
    2.3178    0.4957   -2.1090 H   0  0  0  0  0  0  0  0  0  0  0  0
    2.5875    3.8535    0.1648 H   0  0  0  0  0  0  0  0  0  0  0  0
    0.9873    3.5867    0.9362 H   0  0  0  0  0  0  0  0  0  0  0  0
    1.8467    1.5109    2.0041 H   0  0  0  0  0  0  0  0  0  0  0  0
    3.4202    1.7499    1.2318 H   0  0  0  0  0  0  0  0  0  0  0  0
    2.8522    2.8916    2.4629 H   0  0  0  0  0  0  0  0  0  0  0  0
   -3.0759    2.3279    0.4493 H   0  0  0  0  0  0  0  0  0  0  0  0
   -2.3788    1.7712    1.9891 H   0  0  0  0  0  0  0  0  0  0  0  0
   -4.1356    1.5852    1.6916 H   0  0  0  0  0  0  0  0  0  0  0  0
   -2.6996   -2.4425   -1.6411 H   0  0  0  0  0  0  0  0  0  0  0  0
   -3.9929   -1.7768   -0.6006 H   0  0  0  0  0  0  0  0  0  0  0  0
   -3.3518   -3.4215   -0.2929 H   0  0  0  0  0  0  0  0  0  0  0  0
  1  2  1  0  0  0  0
  2  3  1  0  0  0  0
  3  4  4  0  0  0  0
  4  5  2  0  0  0  0
  4  6  1  0  0  0  0
  6  7  1  0  0  0  0
  7  8  1  0  0  0  0
  7  9  1  0  0  0  0
  9 10  2  0  0  0  0
  9 11  4  0  0  0  0
 11 12  1  0  0  0  0
 12 13  1  0  0  0  0
  7 14  1  0  0  0  0
 14 15  1  0  0  0  0
 15 16  2  0  0  0  0
 15 17  1  0  0  0  0
 17 18  1  0  0  0  0
 15 19  2  0  0  0  0
 19 20  1  0  0  0  0
  1 21  1  0  0  0  0
  1 22  1  0  0  0  0
  1 23  1  0  0  0  0
  2 24  1  0  0  0  0
  2 25  1  0  0  0  0
  6 26  1  0  0  0  0
  6 27  1  0  0  0  0
 12 28  1  0  0  0  0
 12 29  1  0  0  0  0
 13 30  1  0  0  0  0
 13 31  1  0  0  0  0
 13 32  1  0  0  0  0
 18 33  1  0  0  0  0
 18 34  1  0  0  0  0
 18 35  1  0  0  0  0
 20 36  1  0  0  0  0
 20 37  1  0  0  0  0
 20 38  1  0  0  0  0
M  END
