 xtb: 6.7.1 (edcfbbe)
          04092507313D

 38 37  0     0  0            999 V2000
    2.2425   -2.6980    0.6387 C   0  0  0  0  0  0  0  0  0  0  0  0
    3.2899   -1.8249   -0.0343 C   0  0  0  0  0  0  0  0  0  0  0  0
    2.6743   -0.6646   -0.6263 O   0  0  0  0  0  0  0  0  0  0  0  0
    2.1159   -0.7959   -1.8210 C   0  0  0  0  0  0  0  0  0  0  0  0
    2.1920   -1.7895   -2.5039 O   0  0  0  0  0  0  0  0  0  0  0  0
    1.3621    0.4605   -2.2157 C   0  0  0  0  0  0  0  0  0  0  0  0
    0.2597    0.7420   -1.1952 C   0  0  0  0  0  0  0  0  0  0  0  0
   -0.3063    1.6323   -1.4835 H   0  0  0  0  0  0  0  0  0  0  0  0
    0.8268    0.9619    0.1984 C   0  0  0  0  0  0  0  0  0  0  0  0
    0.5046    0.2828    1.1529 O   0  0  0  0  0  0  0  0  0  0  0  0
    1.6513    1.9693    0.2191 O   0  0  0  0  0  0  0  0  0  0  0  0
    2.3169    2.3144    1.4527 C   0  0  0  0  0  0  0  0  0  0  0  0
    3.8142    2.3591    1.2058 C   0  0  0  0  0  0  0  0  0  0  0  0
   -0.8987   -0.6697   -1.1153 S   0  0  0  0  0  0  0  0  0  0  0  0
   -2.0931    0.0096    0.5078 P   0  0  0  0  0  0  0  0  0  0  0  0
   -2.1235    1.9393    0.8337 S   0  0  0  0  0  0  0  0  0  0  0  0
   -3.5292   -0.5662    0.0727 O   0  0  0  0  0  0  0  0  0  0  0  0
   -4.2438   -0.0189   -1.0388 C   0  0  0  0  0  0  0  0  0  0  0  0
   -1.8549   -0.8729    1.7945 O   0  0  0  0  0  0  0  0  0  0  0  0
   -1.8792   -2.3128    1.7586 C   0  0  0  0  0  0  0  0  0  0  0  0
    1.6521   -2.0989    1.3297 H   0  0  0  0  0  0  0  0  0  0  0  0
    1.5799   -3.1273   -0.1103 H   0  0  0  0  0  0  0  0  0  0  0  0
    2.7310   -3.4990    1.1830 H   0  0  0  0  0  0  0  0  0  0  0  0
    3.8157   -2.3776   -0.8178 H   0  0  0  0  0  0  0  0  0  0  0  0
    3.9975   -1.4225    0.6907 H   0  0  0  0  0  0  0  0  0  0  0  0
    0.9304    0.3077   -3.2040 H   0  0  0  0  0  0  0  0  0  0  0  0
    2.0478    1.3086   -2.2277 H   0  0  0  0  0  0  0  0  0  0  0  0
    1.9293    3.2933    1.7443 H   0  0  0  0  0  0  0  0  0  0  0  0
    2.0491    1.5748    2.2117 H   0  0  0  0  0  0  0  0  0  0  0  0
    4.1645    1.3906    0.8594 H   0  0  0  0  0  0  0  0  0  0  0  0
    4.0454    3.1066    0.4531 H   0  0  0  0  0  0  0  0  0  0  0  0
    4.3206    2.6138    2.1308 H   0  0  0  0  0  0  0  0  0  0  0  0
   -4.2752    1.0694   -0.9636 H   0  0  0  0  0  0  0  0  0  0  0  0
   -5.2466   -0.4332   -0.9753 H   0  0  0  0  0  0  0  0  0  0  0  0
   -3.7629   -0.3154   -1.9710 H   0  0  0  0  0  0  0  0  0  0  0  0
   -1.5681   -2.6253    2.7519 H   0  0  0  0  0  0  0  0  0  0  0  0
   -1.1819   -2.6796    1.0050 H   0  0  0  0  0  0  0  0  0  0  0  0
   -2.8869   -2.6596    1.5367 H   0  0  0  0  0  0  0  0  0  0  0  0
  1  2  1  0  0  0  0
  2  3  1  0  0  0  0
  3  4  1  0  0  0  0
  4  5  2  0  0  0  0
  4  6  1  0  0  0  0
  6  7  1  0  0  0  0
  7  8  1  0  0  0  0
  7  9  1  0  0  0  0
  9 10  2  0  0  0  0
  9 11  4  0  0  0  0
 11 12  1  0  0  0  0
 12 13  1  0  0  0  0
  7 14  1  0  0  0  0
 14 15  1  0  0  0  0
 15 16  2  0  0  0  0
 15 17  1  0  0  0  0
 17 18  1  0  0  0  0
 15 19  2  0  0  0  0
 19 20  1  0  0  0  0
  1 21  1  0  0  0  0
  1 22  1  0  0  0  0
  1 23  1  0  0  0  0
  2 24  1  0  0  0  0
  2 25  1  0  0  0  0
  6 26  1  0  0  0  0
  6 27  1  0  0  0  0
 12 28  1  0  0  0  0
 12 29  1  0  0  0  0
 13 30  1  0  0  0  0
 13 31  1  0  0  0  0
 13 32  1  0  0  0  0
 18 33  1  0  0  0  0
 18 34  1  0  0  0  0
 18 35  1  0  0  0  0
 20 36  1  0  0  0  0
 20 37  1  0  0  0  0
 20 38  1  0  0  0  0
M  END
