41
 xtb: 6.7.1 (edcfbbe)
C            5.29075774250306       -1.65032579567919        0.24139860362938
C            4.81589376846527       -1.35319316809369       -1.15910190738700
O            3.35052237807364       -1.21120502971125       -1.22511316529041
P            2.60312048262351        0.11033244164441       -0.69341302287289
S            3.47027095408744        1.83652550075551       -0.92210939930121
O            2.27509618059506       -0.12739005100405        0.86369468239473
C            1.70971570391663       -1.40017108585817        1.34121955941637
C            1.16329472408786       -1.15506221247000        2.72335727357624
S            0.81890666696688       -0.20958530237730       -1.80389001137331
C           -0.03933189808939        1.37974173586813       -1.48245837218170
S           -0.73533221145666        1.64110622699353        0.19624689237167
P           -2.41813350660144        0.35985403239947        0.14430100240682
S           -3.41590694191644        0.30907537066939       -1.52834334189243
O           -3.21630204297488        0.82215477486422        1.46345209959148
C           -4.36103367247904        1.74431337891953        1.43087312004990
C           -3.92711738442776        3.18107665645892        1.28270847282155
O           -1.77255656055154       -1.02528175593377        0.64211541347198
C           -2.60483006687022       -2.23946772960148        0.71429539089822
C           -1.68068260992456       -3.39670621992358        0.98830078096265
H            4.82056033300157       -2.55648594769792        0.63296647753643
H            6.37366314557834       -1.81059096896065        0.21185631838546
H            5.08966547175249       -0.81772667942009        0.92226165356971
H            5.02186692722822       -2.18093189592798       -1.84003337200869
H            5.26370136093126       -0.43938705666210       -1.56099618793384
H            0.92719589896667       -1.72258400539113        0.64678933442828
H            2.51554102854702       -2.13965614732619        1.34528708179239
H            1.95094338307882       -0.80334101312146        3.39605394495570
H            0.35572440747841       -0.41781713683505        2.70213380506786
H            0.76647467742855       -2.09429767457631        3.12047840241902
H           -0.84648103152716        1.43414124817458       -2.21957775475887
H            0.65623587447747        2.20838883813167       -1.64839813159260
H           -5.02947671790569        1.43190802462215        0.62324288558963
H           -4.85333876904840        1.56983295987953        2.38962651193414
H           -3.48553767417613        3.37110233245754        0.30033005878327
H           -4.80859976012405        3.82193088094599        1.38866924287913
H           -3.20687387314739        3.45605831192074        2.05876967403089
H           -3.33644635713570       -2.09899253268461        1.51639178384622
H           -3.12839439246529       -2.35672401284647       -0.23952746636929
H           -1.14041483769632       -3.25599775893418        1.92867606468820
H           -2.27632013224429       -4.31156636820861        1.06617094461781
H           -0.96022230384052       -3.52254199442298        0.17488980144913
