 xtb: 6.7.1 (edcfbbe)
          04032520493D

  6  5  0     0  0            999 V2000
   -0.6608    1.0343    0.0001 C   0  0  0  0  0  0  0  0  0  0  0  0
    0.6608    1.0343   -0.0001 C   0  0  0  0  0  0  0  0  0  0  0  0
    1.6110   -0.4057    0.0000 Cl  0  0  0  0  0  0  0  0  0  0  0  0
   -1.6110   -0.4057   -0.0000 Cl  0  0  0  0  0  0  0  0  0  0  0  0
   -1.2359    1.9448    0.0003 H   0  0  0  0  0  0  0  0  0  0  0  0
    1.2359    1.9448   -0.0003 H   0  0  0  0  0  0  0  0  0  0  0  0
  1  2  2  0  0  0  0
  2  3  1  0  0  0  0
  1  4  1  0  0  0  0
  1  5  1  0  0  0  0
  2  6  1  0  0  0  0
M  END
