 xtb: 6.7.1 (edcfbbe)
          04092505213D

 41 40  0     0  0            999 V2000
    3.7038   -0.3740   -2.5257 C   0  0  0  0  0  0  0  0  0  0  0  0
    2.4834    0.4942   -2.3076 C   0  0  0  0  0  0  0  0  0  0  0  0
    1.7653    0.1215   -1.1170 O   0  0  0  0  0  0  0  0  0  0  0  0
    2.3534    0.3279    0.3392 P   0  0  0  0  0  0  0  0  0  0  0  0
    3.4913    1.8970    0.6138 S   0  0  0  0  0  0  0  0  0  0  0  0
    3.0646   -1.0804    0.5952 O   0  0  0  0  0  0  0  0  0  0  0  0
    4.0367   -1.2570    1.6390 C   0  0  0  0  0  0  0  0  0  0  0  0
    3.4099   -1.1918    3.0175 C   0  0  0  0  0  0  0  0  0  0  0  0
    0.5627    0.2516    1.4333 S   0  0  0  0  0  0  0  0  0  0  0  0
   -0.1114   -1.3261    0.7712 C   0  0  0  0  0  0  0  0  0  0  0  0
   -1.9008   -1.3404    0.8990 S   0  0  0  0  0  0  0  0  0  0  0  0
   -2.2803    0.0802   -0.6504 P   0  0  0  0  0  0  0  0  0  0  0  0
   -1.2207   -0.2054   -2.2732 S   0  0  0  0  0  0  0  0  0  0  0  0
   -2.0053    1.5411   -0.1236 O   0  0  0  0  0  0  0  0  0  0  0  0
   -2.8165    2.2988    0.8074 C   0  0  0  0  0  0  0  0  0  0  0  0
   -2.8927    1.6626    2.1799 C   0  0  0  0  0  0  0  0  0  0  0  0
   -3.8628    0.0710   -0.7710 O   0  0  0  0  0  0  0  0  0  0  0  0
   -4.6790   -1.1129   -0.8562 C   0  0  0  0  0  0  0  0  0  0  0  0
   -4.2848   -2.0137   -2.0074 C   0  0  0  0  0  0  0  0  0  0  0  0
    4.4306   -0.1949   -1.7341 H   0  0  0  0  0  0  0  0  0  0  0  0
    3.4235   -1.4241   -2.5202 H   0  0  0  0  0  0  0  0  0  0  0  0
    4.1530   -0.1245   -3.4817 H   0  0  0  0  0  0  0  0  0  0  0  0
    1.7417    0.3700   -3.0994 H   0  0  0  0  0  0  0  0  0  0  0  0
    2.7651    1.5488   -2.2243 H   0  0  0  0  0  0  0  0  0  0  0  0
    4.4683   -2.2378    1.4351 H   0  0  0  0  0  0  0  0  0  0  0  0
    4.8020   -0.4816    1.5322 H   0  0  0  0  0  0  0  0  0  0  0  0
    2.6135   -1.9253    3.1125 H   0  0  0  0  0  0  0  0  0  0  0  0
    4.1701   -1.3902    3.7662 H   0  0  0  0  0  0  0  0  0  0  0  0
    2.9970   -0.1979    3.1896 H   0  0  0  0  0  0  0  0  0  0  0  0
    0.2572   -2.1541    1.3701 H   0  0  0  0  0  0  0  0  0  0  0  0
    0.1763   -1.4152   -0.2764 H   0  0  0  0  0  0  0  0  0  0  0  0
   -2.3080    3.2637    0.8440 H   0  0  0  0  0  0  0  0  0  0  0  0
   -3.8102    2.4172    0.3712 H   0  0  0  0  0  0  0  0  0  0  0  0
   -3.4620    0.7365    2.1446 H   0  0  0  0  0  0  0  0  0  0  0  0
   -1.8927    1.4498    2.5531 H   0  0  0  0  0  0  0  0  0  0  0  0
   -3.3852    2.3531    2.8575 H   0  0  0  0  0  0  0  0  0  0  0  0
   -4.6053   -1.6469    0.0949 H   0  0  0  0  0  0  0  0  0  0  0  0
   -5.6883   -0.7179   -0.9855 H   0  0  0  0  0  0  0  0  0  0  0  0
   -4.2931   -1.4600   -2.9433 H   0  0  0  0  0  0  0  0  0  0  0  0
   -3.2812   -2.4062   -1.8504 H   0  0  0  0  0  0  0  0  0  0  0  0
   -4.9831   -2.8418   -2.0727 H   0  0  0  0  0  0  0  0  0  0  0  0
  1  2  1  0  0  0  0
  2  3  1  0  0  0  0
  3  4  2  0  0  0  0
  4  5  2  0  0  0  0
  4  6  2  0  0  0  0
  6  7  1  0  0  0  0
  7  8  1  0  0  0  0
  4  9  1  0  0  0  0
  9 10  1  0  0  0  0
 10 11  1  0  0  0  0
 11 12  1  0  0  0  0
 12 13  2  0  0  0  0
 12 14  2  0  0  0  0
 14 15  1  0  0  0  0
 15 16  1  0  0  0  0
 12 17  2  0  0  0  0
 17 18  1  0  0  0  0
 18 19  1  0  0  0  0
  1 20  1  0  0  0  0
  1 21  1  0  0  0  0
  1 22  1  0  0  0  0
  2 23  1  0  0  0  0
  2 24  1  0  0  0  0
  7 25  1  0  0  0  0
  7 26  1  0  0  0  0
  8 27  1  0  0  0  0
  8 28  1  0  0  0  0
  8 29  1  0  0  0  0
 10 30  1  0  0  0  0
 10 31  1  0  0  0  0
 15 32  1  0  0  0  0
 15 33  1  0  0  0  0
 16 34  1  0  0  0  0
 16 35  1  0  0  0  0
 16 36  1  0  0  0  0
 18 37  1  0  0  0  0
 18 38  1  0  0  0  0
 19 39  1  0  0  0  0
 19 40  1  0  0  0  0
 19 41  1  0  0  0  0
M  END
