 xtb: 6.7.1 (edcfbbe)
          04092505213D

 41 40  0     0  0            999 V2000
    3.1467    1.9076    2.1848 C   0  0  0  0  0  0  0  0  0  0  0  0
    2.3168    1.9237    0.9188 C   0  0  0  0  0  0  0  0  0  0  0  0
    1.4755    0.7554    0.8020 O   0  0  0  0  0  0  0  0  0  0  0  0
    2.0026   -0.7358    0.7486 P   0  0  0  0  0  0  0  0  0  0  0  0
    2.3804   -1.6417    2.4434 S   0  0  0  0  0  0  0  0  0  0  0  0
    3.2410   -0.6094   -0.2508 O   0  0  0  0  0  0  0  0  0  0  0  0
    4.2519   -1.6283   -0.3242 C   0  0  0  0  0  0  0  0  0  0  0  0
    3.7526   -2.8677   -1.0389 C   0  0  0  0  0  0  0  0  0  0  0  0
    0.4268   -1.6286   -0.3424 S   0  0  0  0  0  0  0  0  0  0  0  0
    0.4520   -0.6237   -1.8562 C   0  0  0  0  0  0  0  0  0  0  0  0
   -0.2046    1.0633   -1.6614 S   0  0  0  0  0  0  0  0  0  0  0  0
   -1.9699    0.5704   -0.6309 P   0  0  0  0  0  0  0  0  0  0  0  0
   -2.9461   -1.0196   -1.2464 S   0  0  0  0  0  0  0  0  0  0  0  0
   -2.7965    1.9247   -0.6926 O   0  0  0  0  0  0  0  0  0  0  0  0
   -3.5310    2.3085   -1.8739 C   0  0  0  0  0  0  0  0  0  0  0  0
   -4.5474    3.3578   -1.4715 C   0  0  0  0  0  0  0  0  0  0  0  0
   -1.4809    0.5834    0.8759 O   0  0  0  0  0  0  0  0  0  0  0  0
   -2.1264   -0.1977    1.8978 C   0  0  0  0  0  0  0  0  0  0  0  0
   -3.4804    0.3761    2.2565 C   0  0  0  0  0  0  0  0  0  0  0  0
    3.7126    2.8311    2.2573 H   0  0  0  0  0  0  0  0  0  0  0  0
    2.5056    1.8080    3.0576 H   0  0  0  0  0  0  0  0  0  0  0  0
    3.8375    1.0652    2.1699 H   0  0  0  0  0  0  0  0  0  0  0  0
    2.9517    1.9789    0.0320 H   0  0  0  0  0  0  0  0  0  0  0  0
    1.6025    2.7489    0.9134 H   0  0  0  0  0  0  0  0  0  0  0  0
    5.0718   -1.1518   -0.8634 H   0  0  0  0  0  0  0  0  0  0  0  0
    4.5671   -1.8769    0.6943 H   0  0  0  0  0  0  0  0  0  0  0  0
    4.5622   -3.5862   -1.1170 H   0  0  0  0  0  0  0  0  0  0  0  0
    2.9369   -3.3176   -0.4736 H   0  0  0  0  0  0  0  0  0  0  0  0
    3.3960   -2.6209   -2.0355 H   0  0  0  0  0  0  0  0  0  0  0  0
   -0.1678   -1.1683   -2.5665 H   0  0  0  0  0  0  0  0  0  0  0  0
    1.4717   -0.5169   -2.2178 H   0  0  0  0  0  0  0  0  0  0  0  0
   -2.8192    2.7014   -2.6047 H   0  0  0  0  0  0  0  0  0  0  0  0
   -4.0145    1.4169   -2.2874 H   0  0  0  0  0  0  0  0  0  0  0  0
   -4.0427    4.2092   -1.0244 H   0  0  0  0  0  0  0  0  0  0  0  0
   -5.0907    3.6825   -2.3528 H   0  0  0  0  0  0  0  0  0  0  0  0
   -5.2478    2.9456   -0.7507 H   0  0  0  0  0  0  0  0  0  0  0  0
   -2.2204   -1.2300    1.5420 H   0  0  0  0  0  0  0  0  0  0  0  0
   -1.4292   -0.1661    2.7374 H   0  0  0  0  0  0  0  0  0  0  0  0
   -3.3810    1.4199    2.5422 H   0  0  0  0  0  0  0  0  0  0  0  0
   -4.1451    0.3062    1.3960 H   0  0  0  0  0  0  0  0  0  0  0  0
   -3.9054   -0.1890    3.0799 H   0  0  0  0  0  0  0  0  0  0  0  0
  1  2  1  0  0  0  0
  2  3  1  0  0  0  0
  3  4  2  0  0  0  0
  4  5  2  0  0  0  0
  4  6  2  0  0  0  0
  6  7  1  0  0  0  0
  7  8  1  0  0  0  0
  4  9  1  0  0  0  0
  9 10  1  0  0  0  0
 10 11  1  0  0  0  0
 11 12  1  0  0  0  0
 12 13  2  0  0  0  0
 12 14  2  0  0  0  0
 14 15  1  0  0  0  0
 15 16  1  0  0  0  0
 12 17  2  0  0  0  0
 17 18  1  0  0  0  0
 18 19  1  0  0  0  0
  1 20  1  0  0  0  0
  1 21  1  0  0  0  0
  1 22  1  0  0  0  0
  2 23  1  0  0  0  0
  2 24  1  0  0  0  0
  7 25  1  0  0  0  0
  7 26  1  0  0  0  0
  8 27  1  0  0  0  0
  8 28  1  0  0  0  0
  8 29  1  0  0  0  0
 10 30  1  0  0  0  0
 10 31  1  0  0  0  0
 15 32  1  0  0  0  0
 15 33  1  0  0  0  0
 16 34  1  0  0  0  0
 16 35  1  0  0  0  0
 16 36  1  0  0  0  0
 18 37  1  0  0  0  0
 18 38  1  0  0  0  0
 19 39  1  0  0  0  0
 19 40  1  0  0  0  0
 19 41  1  0  0  0  0
M  END
