  29
 
 C          4.1893934859       -0.2399107456       -0.5305339925
 C          2.7582637917       -0.6768089286       -0.5115002294
 O          2.0913193911       -0.9435034933       -1.4856884055
 O          2.3030875078       -0.7725332732        0.7429347450
 C          0.9493417232       -1.1615689206        0.9498461575
 C          0.0678736368        0.0743174554        1.1417743691
 C         -1.3787417443       -0.3072008721        1.4820312377
 O         -1.9325552970       -1.1294230813        0.4596648509
 C         -2.5541489141       -0.5409654633       -0.5679480042
 O         -2.7456318669        0.6541706029       -0.6368889430
 C         -2.9700420484       -1.5461416552       -1.5931459638
 O          0.1002049334        0.8038480264       -0.0918784808
 C         -0.2011666797        2.1048964734       -0.0625102571
 O         -0.4217707030        2.7027402279        0.9677451951
 C         -0.2314158371        2.6877052055       -1.4369204219
 H          4.4358882246        0.1687133815       -1.5049707409
 H          4.8144247245       -1.1106634209       -0.3429361301
 H          4.3661983230        0.4848673991        0.2573864265
 H          0.5975259314       -1.7294464322        0.0834920190
 H          0.9379082817       -1.7714452675        1.8522745657
 H          0.4637439427        0.7176257119        1.9375211420
 H         -1.9754104332        0.6054700090        1.5837995506
 H         -1.4109184419       -0.8944908002        2.3984073319
 H         -3.1085978962       -2.5153001231       -1.1267074416
 H         -2.1736034170       -1.6199547773       -2.3319988350
 H         -3.8737966202       -1.2111003123       -2.0918852555
 H         -1.2378242186        2.5312237582       -1.8255223902
 H          0.4736989898        2.1674179796       -2.0778154622
 H         -0.0286343196        3.7528571931       -1.3939393348
          29
        -50.87668164
 C          1.6216780755       -3.1891231940        0.4826887410
 C          0.6009434879       -2.2448663063       -0.0609383968
 O         -0.5638198591       -2.1875859788        0.2733057314
 O          1.1264301310       -1.4347072920       -0.9855198278
 C          0.2905527466       -0.4009746892       -1.4985462119
 C          0.1229631478        0.7305427335       -0.4767623897
 C         -1.0747015573        1.6181400392       -0.8305897486
 O         -2.2673612007        0.8446562181       -0.7760835860
 C         -2.7638589019        0.5490004994        0.4332366381
 O         -2.3009866053        0.9986903862        1.4584322190
 C         -3.9184620170       -0.3914323484        0.3331128785
 O          1.2948742376        1.5387981346       -0.4357785293
 C          2.2515016369        1.2199632869        0.4467859537
 O          2.1530564933        0.2995908149        1.2281896212
 C          3.4283449109        2.1307027186        0.3178032575
 H          2.2760967630       -3.5272272217       -0.3141090662
 H          1.1327030783       -4.0209592351        0.9780515123
 H          2.2189606726       -2.6359389740        1.2069011701
 H          0.7938114465       -0.0328568205       -2.3924567284
 H         -0.6956299252       -0.8102203262       -1.7375569478
 H         -0.0356814083        0.2932978628        0.5193025259
 H         -0.9992446737        1.9873080119       -1.8525151790
 H         -1.1311886646        2.4472332448       -0.1189187164
 H         -4.4218413442       -0.2658552199       -0.6193211810
 H         -4.5945946546       -0.2410992767        1.1682322004
 H         -3.5127233121       -1.4014800449        0.3898255517
 H          3.1221947318        3.0700018678       -0.1289238037
 H          4.1601071953        1.6501845780       -0.3283815082
 H          3.8805882241        2.2824173692        1.2927971568
