 xtb: 6.7.1 (edcfbbe)
          04092505203D

 41 40  0     0  0            999 V2000
    4.5986    1.0140   -1.6688 C   0  0  0  0  0  0  0  0  0  0  0  0
    4.6268   -0.2185   -0.7889 C   0  0  0  0  0  0  0  0  0  0  0  0
    3.3320   -0.8387   -0.6908 O   0  0  0  0  0  0  0  0  0  0  0  0
    2.1374   -0.1676    0.1134 P   0  0  0  0  0  0  0  0  0  0  0  0
    2.6907    0.7865    1.7387 S   0  0  0  0  0  0  0  0  0  0  0  0
    1.1259   -1.3766    0.2618 O   0  0  0  0  0  0  0  0  0  0  0  0
    1.4747   -2.7086    0.6939 C   0  0  0  0  0  0  0  0  0  0  0  0
    1.8108   -2.7538    2.1703 C   0  0  0  0  0  0  0  0  0  0  0  0
    1.0903    0.9966   -1.3064 S   0  0  0  0  0  0  0  0  0  0  0  0
    0.1022    1.9451   -0.1115 C   0  0  0  0  0  0  0  0  0  0  0  0
   -0.9058    0.9169    0.9824 S   0  0  0  0  0  0  0  0  0  0  0  0
   -2.2051    0.0345   -0.4795 P   0  0  0  0  0  0  0  0  0  0  0  0
   -1.5203   -1.4300   -1.5860 S   0  0  0  0  0  0  0  0  0  0  0  0
   -2.7045    1.2495   -1.3563 O   0  0  0  0  0  0  0  0  0  0  0  0
   -3.8334    2.1081   -1.0519 C   0  0  0  0  0  0  0  0  0  0  0  0
   -3.6083    2.9693    0.1732 C   0  0  0  0  0  0  0  0  0  0  0  0
   -3.4871   -0.3496    0.3790 O   0  0  0  0  0  0  0  0  0  0  0  0
   -3.6043   -1.6314    1.0200 C   0  0  0  0  0  0  0  0  0  0  0  0
   -2.5680   -1.8145    2.1095 C   0  0  0  0  0  0  0  0  0  0  0  0
    4.0044    1.7945   -1.1953 H   0  0  0  0  0  0  0  0  0  0  0  0
    5.6110    1.3780   -1.8105 H   0  0  0  0  0  0  0  0  0  0  0  0
    4.1590    0.7787   -2.6351 H   0  0  0  0  0  0  0  0  0  0  0  0
    4.9636    0.0377    0.2209 H   0  0  0  0  0  0  0  0  0  0  0  0
    5.2612   -1.0006   -1.2080 H   0  0  0  0  0  0  0  0  0  0  0  0
    0.5799   -3.2897    0.4601 H   0  0  0  0  0  0  0  0  0  0  0  0
    2.3092   -3.0629    0.0847 H   0  0  0  0  0  0  0  0  0  0  0  0
    0.9943   -2.3396    2.7573 H   0  0  0  0  0  0  0  0  0  0  0  0
    1.9823   -3.7835    2.4673 H   0  0  0  0  0  0  0  0  0  0  0  0
    2.7083   -2.1700    2.3696 H   0  0  0  0  0  0  0  0  0  0  0  0
   -0.5281    2.6065   -0.7012 H   0  0  0  0  0  0  0  0  0  0  0  0
    0.7673    2.5063    0.5448 H   0  0  0  0  0  0  0  0  0  0  0  0
   -3.9343    2.7105   -1.9562 H   0  0  0  0  0  0  0  0  0  0  0  0
   -4.7147    1.4775   -0.9246 H   0  0  0  0  0  0  0  0  0  0  0  0
   -3.4921    2.3472    1.0576 H   0  0  0  0  0  0  0  0  0  0  0  0
   -2.7209    3.5864    0.0570 H   0  0  0  0  0  0  0  0  0  0  0  0
   -4.4704    3.6155    0.3075 H   0  0  0  0  0  0  0  0  0  0  0  0
   -4.6189   -1.6327    1.4205 H   0  0  0  0  0  0  0  0  0  0  0  0
   -3.5002   -2.4092    0.2568 H   0  0  0  0  0  0  0  0  0  0  0  0
   -2.6219   -1.0013    2.8292 H   0  0  0  0  0  0  0  0  0  0  0  0
   -2.7364   -2.7595    2.6158 H   0  0  0  0  0  0  0  0  0  0  0  0
   -1.5715   -1.8218    1.6673 H   0  0  0  0  0  0  0  0  0  0  0  0
  1  2  1  0  0  0  0
  2  3  1  0  0  0  0
  3  4  2  0  0  0  0
  4  5  2  0  0  0  0
  4  6  2  0  0  0  0
  6  7  1  0  0  0  0
  7  8  1  0  0  0  0
  4  9  1  0  0  0  0
  9 10  1  0  0  0  0
 10 11  1  0  0  0  0
 11 12  1  0  0  0  0
 12 13  2  0  0  0  0
 12 14  2  0  0  0  0
 14 15  1  0  0  0  0
 15 16  1  0  0  0  0
 12 17  2  0  0  0  0
 17 18  1  0  0  0  0
 18 19  1  0  0  0  0
  1 20  1  0  0  0  0
  1 21  1  0  0  0  0
  1 22  1  0  0  0  0
  2 23  1  0  0  0  0
  2 24  1  0  0  0  0
  7 25  1  0  0  0  0
  7 26  1  0  0  0  0
  8 27  1  0  0  0  0
  8 28  1  0  0  0  0
  8 29  1  0  0  0  0
 10 30  1  0  0  0  0
 10 31  1  0  0  0  0
 15 32  1  0  0  0  0
 15 33  1  0  0  0  0
 16 34  1  0  0  0  0
 16 35  1  0  0  0  0
 16 36  1  0  0  0  0
 18 37  1  0  0  0  0
 18 38  1  0  0  0  0
 19 39  1  0  0  0  0
 19 40  1  0  0  0  0
 19 41  1  0  0  0  0
M  END
