 xtb: 6.7.1 (edcfbbe)
          04092505203D

 41 40  0     0  0            999 V2000
    4.2526    0.6516   -2.2658 C   0  0  0  0  0  0  0  0  0  0  0  0
    4.5501   -0.1479   -1.0150 C   0  0  0  0  0  0  0  0  0  0  0  0
    3.6842    0.1936    0.0842 O   0  0  0  0  0  0  0  0  0  0  0  0
    2.0974    0.1899    0.0323 P   0  0  0  0  0  0  0  0  0  0  0  0
    1.1862    1.7141   -0.7907 S   0  0  0  0  0  0  0  0  0  0  0  0
    1.7177    0.1294    1.5629 O   0  0  0  0  0  0  0  0  0  0  0  0
    2.2460   -0.8609    2.4802 C   0  0  0  0  0  0  0  0  0  0  0  0
    3.3583   -0.2635    3.3170 C   0  0  0  0  0  0  0  0  0  0  0  0
    1.6656   -1.7283   -0.7938 S   0  0  0  0  0  0  0  0  0  0  0  0
   -0.0986   -1.4873   -1.0467 C   0  0  0  0  0  0  0  0  0  0  0  0
   -0.9937   -1.3376    0.5427 S   0  0  0  0  0  0  0  0  0  0  0  0
   -2.4593    0.1194    0.0433 P   0  0  0  0  0  0  0  0  0  0  0  0
   -2.3248    0.9076   -1.7517 S   0  0  0  0  0  0  0  0  0  0  0  0
   -2.5040    1.0593    1.3161 O   0  0  0  0  0  0  0  0  0  0  0  0
   -1.4523    1.9346    1.7524 C   0  0  0  0  0  0  0  0  0  0  0  0
   -1.5289    3.2793    1.0569 C   0  0  0  0  0  0  0  0  0  0  0  0
   -3.8515   -0.5668    0.3541 O   0  0  0  0  0  0  0  0  0  0  0  0
   -4.6205   -1.2299   -0.6627 C   0  0  0  0  0  0  0  0  0  0  0  0
   -3.9494   -2.5017   -1.1429 C   0  0  0  0  0  0  0  0  0  0  0  0
    3.2572    0.4124   -2.6380 H   0  0  0  0  0  0  0  0  0  0  0  0
    4.2912    1.7178   -2.0541 H   0  0  0  0  0  0  0  0  0  0  0  0
    4.9829    0.4102   -3.0314 H   0  0  0  0  0  0  0  0  0  0  0  0
    5.5489    0.0691   -0.6323 H   0  0  0  0  0  0  0  0  0  0  0  0
    4.4485   -1.2194   -1.2077 H   0  0  0  0  0  0  0  0  0  0  0  0
    1.3915   -1.1529    3.0939 H   0  0  0  0  0  0  0  0  0  0  0  0
    2.5969   -1.7245    1.9088 H   0  0  0  0  0  0  0  0  0  0  0  0
    4.1858    0.0388    2.6807 H   0  0  0  0  0  0  0  0  0  0  0  0
    2.9942    0.6081    3.8537 H   0  0  0  0  0  0  0  0  0  0  0  0
    3.7043   -1.0056    4.0295 H   0  0  0  0  0  0  0  0  0  0  0  0
   -0.4484   -2.3718   -1.5734 H   0  0  0  0  0  0  0  0  0  0  0  0
   -0.2760   -0.5780   -1.6298 H   0  0  0  0  0  0  0  0  0  0  0  0
   -1.6192    2.0343    2.8268 H   0  0  0  0  0  0  0  0  0  0  0  0
   -0.4789    1.4644    1.5789 H   0  0  0  0  0  0  0  0  0  0  0  0
   -0.7883    3.9468    1.4857 H   0  0  0  0  0  0  0  0  0  0  0  0
   -1.3182    3.1679   -0.0055 H   0  0  0  0  0  0  0  0  0  0  0  0
   -2.5204    3.7071    1.1775 H   0  0  0  0  0  0  0  0  0  0  0  0
   -5.5742   -1.4356   -0.1751 H   0  0  0  0  0  0  0  0  0  0  0  0
   -4.7699   -0.5362   -1.4963 H   0  0  0  0  0  0  0  0  0  0  0  0
   -3.0445   -2.2515   -1.6959 H   0  0  0  0  0  0  0  0  0  0  0  0
   -3.6887   -3.1333   -0.2973 H   0  0  0  0  0  0  0  0  0  0  0  0
   -4.6248   -3.0391   -1.8008 H   0  0  0  0  0  0  0  0  0  0  0  0
  1  2  1  0  0  0  0
  2  3  1  0  0  0  0
  3  4  2  0  0  0  0
  4  5  2  0  0  0  0
  4  6  2  0  0  0  0
  6  7  1  0  0  0  0
  7  8  1  0  0  0  0
  4  9  1  0  0  0  0
  9 10  1  0  0  0  0
 10 11  1  0  0  0  0
 11 12  1  0  0  0  0
 12 13  2  0  0  0  0
 12 14  2  0  0  0  0
 14 15  1  0  0  0  0
 15 16  1  0  0  0  0
 12 17  2  0  0  0  0
 17 18  1  0  0  0  0
 18 19  1  0  0  0  0
  1 20  1  0  0  0  0
  1 21  1  0  0  0  0
  1 22  1  0  0  0  0
  2 23  1  0  0  0  0
  2 24  1  0  0  0  0
  7 25  1  0  0  0  0
  7 26  1  0  0  0  0
  8 27  1  0  0  0  0
  8 28  1  0  0  0  0
  8 29  1  0  0  0  0
 10 30  1  0  0  0  0
 10 31  1  0  0  0  0
 15 32  1  0  0  0  0
 15 33  1  0  0  0  0
 16 34  1  0  0  0  0
 16 35  1  0  0  0  0
 16 36  1  0  0  0  0
 18 37  1  0  0  0  0
 18 38  1  0  0  0  0
 19 39  1  0  0  0  0
 19 40  1  0  0  0  0
 19 41  1  0  0  0  0
M  END
