 xtb: 6.7.1 (edcfbbe)
          04092513583D

 41 40  0     0  0            999 V2000
    3.6257    1.2580    2.6915 C   0  0  0  0  0  0  0  0  0  0  0  0
    2.3810    1.5327    1.8729 C   0  0  0  0  0  0  0  0  0  0  0  0
    2.4313    0.8991    0.5771 O   0  0  0  0  0  0  0  0  0  0  0  0
    2.2939   -0.6663    0.3894 P   0  0  0  0  0  0  0  0  0  0  0  0
    1.1320   -1.5847    1.6785 S   0  0  0  0  0  0  0  0  0  0  0  0
    3.8147   -1.1251    0.3810 O   0  0  0  0  0  0  0  0  0  0  0  0
    4.2460   -2.4815    0.5856 C   0  0  0  0  0  0  0  0  0  0  0  0
    3.9011   -3.3833   -0.5821 C   0  0  0  0  0  0  0  0  0  0  0  0
    1.7145   -0.7513   -1.6430 S   0  0  0  0  0  0  0  0  0  0  0  0
   -0.0658   -0.6442   -1.3785 C   0  0  0  0  0  0  0  0  0  0  0  0
   -0.5507    1.0282   -0.8208 S   0  0  0  0  0  0  0  0  0  0  0  0
   -2.6259    0.5698   -0.6402 P   0  0  0  0  0  0  0  0  0  0  0  0
   -3.4290   -0.3723   -2.1498 S   0  0  0  0  0  0  0  0  0  0  0  0
   -3.2871    1.9540   -0.2220 O   0  0  0  0  0  0  0  0  0  0  0  0
   -3.8477    2.8814   -1.1715 C   0  0  0  0  0  0  0  0  0  0  0  0
   -2.7838    3.5681   -2.0025 C   0  0  0  0  0  0  0  0  0  0  0  0
   -2.7319   -0.2694    0.6928 O   0  0  0  0  0  0  0  0  0  0  0  0
   -2.3511    0.2690    1.9843 C   0  0  0  0  0  0  0  0  0  0  0  0
   -2.4060   -0.8590    2.9916 C   0  0  0  0  0  0  0  0  0  0  0  0
    4.5145    1.5446    2.1359 H   0  0  0  0  0  0  0  0  0  0  0  0
    3.5780    1.8265    3.6155 H   0  0  0  0  0  0  0  0  0  0  0  0
    3.6877    0.1976    2.9328 H   0  0  0  0  0  0  0  0  0  0  0  0
    2.2739    2.5927    1.6402 H   0  0  0  0  0  0  0  0  0  0  0  0
    1.4897    1.1750    2.3990 H   0  0  0  0  0  0  0  0  0  0  0  0
    5.3258   -2.3936    0.7162 H   0  0  0  0  0  0  0  0  0  0  0  0
    3.7891   -2.8551    1.5078 H   0  0  0  0  0  0  0  0  0  0  0  0
    4.3403   -4.3624   -0.4166 H   0  0  0  0  0  0  0  0  0  0  0  0
    2.8208   -3.4915   -0.6686 H   0  0  0  0  0  0  0  0  0  0  0  0
    4.2853   -2.9677   -1.5099 H   0  0  0  0  0  0  0  0  0  0  0  0
   -0.3636   -1.3705   -0.6188 H   0  0  0  0  0  0  0  0  0  0  0  0
   -0.5475   -0.8575   -2.3320 H   0  0  0  0  0  0  0  0  0  0  0  0
   -4.5486    2.3385   -1.8127 H   0  0  0  0  0  0  0  0  0  0  0  0
   -4.3899    3.5925   -0.5460 H   0  0  0  0  0  0  0  0  0  0  0  0
   -2.0350    4.0243   -1.3603 H   0  0  0  0  0  0  0  0  0  0  0  0
   -2.2954    2.8468   -2.6558 H   0  0  0  0  0  0  0  0  0  0  0  0
   -3.2506    4.3353   -2.6125 H   0  0  0  0  0  0  0  0  0  0  0  0
   -1.3404    0.6801    1.9010 H   0  0  0  0  0  0  0  0  0  0  0  0
   -3.0470    1.0715    2.2352 H   0  0  0  0  0  0  0  0  0  0  0  0
   -3.4034   -1.2877    3.0188 H   0  0  0  0  0  0  0  0  0  0  0  0
   -1.6935   -1.6356    2.7237 H   0  0  0  0  0  0  0  0  0  0  0  0
   -2.1512   -0.4704    3.9722 H   0  0  0  0  0  0  0  0  0  0  0  0
  1  2  1  0  0  0  0
  2  3  1  0  0  0  0
  3  4  2  0  0  0  0
  4  5  2  0  0  0  0
  4  6  2  0  0  0  0
  6  7  1  0  0  0  0
  7  8  1  0  0  0  0
  4  9  1  0  0  0  0
  9 10  1  0  0  0  0
 10 11  1  0  0  0  0
 11 12  1  0  0  0  0
 12 13  2  0  0  0  0
 12 14  2  0  0  0  0
 14 15  1  0  0  0  0
 15 16  1  0  0  0  0
 12 17  2  0  0  0  0
 17 18  1  0  0  0  0
 18 19  1  0  0  0  0
  1 20  1  0  0  0  0
  1 21  1  0  0  0  0
  1 22  1  0  0  0  0
  2 23  1  0  0  0  0
  2 24  1  0  0  0  0
  7 25  1  0  0  0  0
  7 26  1  0  0  0  0
  8 27  1  0  0  0  0
  8 28  1  0  0  0  0
  8 29  1  0  0  0  0
 10 30  1  0  0  0  0
 10 31  1  0  0  0  0
 15 32  1  0  0  0  0
 15 33  1  0  0  0  0
 16 34  1  0  0  0  0
 16 35  1  0  0  0  0
 16 36  1  0  0  0  0
 18 37  1  0  0  0  0
 18 38  1  0  0  0  0
 19 39  1  0  0  0  0
 19 40  1  0  0  0  0
 19 41  1  0  0  0  0
M  END
