 xtb: 6.7.1 (edcfbbe)
          04092513573D

 41 40  0     0  0            999 V2000
    5.4976   -1.4900   -1.2169 C   0  0  0  0  0  0  0  0  0  0  0  0
    4.0824   -1.5818   -1.7546 C   0  0  0  0  0  0  0  0  0  0  0  0
    3.1314   -1.6644   -0.6711 O   0  0  0  0  0  0  0  0  0  0  0  0
    2.2525   -0.4196   -0.2095 P   0  0  0  0  0  0  0  0  0  0  0  0
    3.2497    1.2365    0.1276 S   0  0  0  0  0  0  0  0  0  0  0  0
    1.4776   -1.0563    1.0111 O   0  0  0  0  0  0  0  0  0  0  0  0
    1.9089   -0.9166    2.3856 C   0  0  0  0  0  0  0  0  0  0  0  0
    1.0098    0.0587    3.1187 C   0  0  0  0  0  0  0  0  0  0  0  0
    0.7406   -0.3453   -1.6827 S   0  0  0  0  0  0  0  0  0  0  0  0
    0.2411    1.3850   -1.4539 C   0  0  0  0  0  0  0  0  0  0  0  0
   -0.5137    1.7145    0.1611 S   0  0  0  0  0  0  0  0  0  0  0  0
   -2.1693    0.4145   -0.0412 P   0  0  0  0  0  0  0  0  0  0  0  0
   -2.9792    0.3025   -1.8263 S   0  0  0  0  0  0  0  0  0  0  0  0
   -3.1425    0.8917    1.1185 O   0  0  0  0  0  0  0  0  0  0  0  0
   -3.9557    2.0780    0.9942 C   0  0  0  0  0  0  0  0  0  0  0  0
   -4.9975    2.0461    2.0948 C   0  0  0  0  0  0  0  0  0  0  0  0
   -1.6011   -0.9262    0.5737 O   0  0  0  0  0  0  0  0  0  0  0  0
   -2.0228   -2.2295    0.1278 C   0  0  0  0  0  0  0  0  0  0  0  0
   -3.3663   -2.6033    0.7178 C   0  0  0  0  0  0  0  0  0  0  0  0
    5.6301   -0.5648   -0.6603 H   0  0  0  0  0  0  0  0  0  0  0  0
    5.7032   -2.3301   -0.5596 H   0  0  0  0  0  0  0  0  0  0  0  0
    6.1951   -1.5059   -2.0485 H   0  0  0  0  0  0  0  0  0  0  0  0
    3.9341   -2.4972   -2.3304 H   0  0  0  0  0  0  0  0  0  0  0  0
    3.8461   -0.7163   -2.3800 H   0  0  0  0  0  0  0  0  0  0  0  0
    1.8391   -1.9212    2.8060 H   0  0  0  0  0  0  0  0  0  0  0  0
    2.9494   -0.5802    2.4059 H   0  0  0  0  0  0  0  0  0  0  0  0
    1.1301    1.0605    2.7111 H   0  0  0  0  0  0  0  0  0  0  0  0
   -0.0304   -0.2381    3.0084 H   0  0  0  0  0  0  0  0  0  0  0  0
    1.2746    0.0678    4.1712 H   0  0  0  0  0  0  0  0  0  0  0  0
   -0.4756    1.5979   -2.2464 H   0  0  0  0  0  0  0  0  0  0  0  0
    1.1149    2.0325   -1.5194 H   0  0  0  0  0  0  0  0  0  0  0  0
   -3.3050    2.9520    1.0873 H   0  0  0  0  0  0  0  0  0  0  0  0
   -4.4185    2.0810    0.0017 H   0  0  0  0  0  0  0  0  0  0  0  0
   -4.5102    2.0007    3.0644 H   0  0  0  0  0  0  0  0  0  0  0  0
   -5.6020    2.9456    2.0383 H   0  0  0  0  0  0  0  0  0  0  0  0
   -5.6385    1.1766    1.9814 H   0  0  0  0  0  0  0  0  0  0  0  0
   -2.0638   -2.2302   -0.9668 H   0  0  0  0  0  0  0  0  0  0  0  0
   -1.2265   -2.8951    0.4646 H   0  0  0  0  0  0  0  0  0  0  0  0
   -3.6161   -3.6190    0.4272 H   0  0  0  0  0  0  0  0  0  0  0  0
   -3.3346   -2.5332    1.8017 H   0  0  0  0  0  0  0  0  0  0  0  0
   -4.1336   -1.9273    0.3428 H   0  0  0  0  0  0  0  0  0  0  0  0
  1  2  1  0  0  0  0
  2  3  1  0  0  0  0
  3  4  2  0  0  0  0
  4  5  2  0  0  0  0
  4  6  2  0  0  0  0
  6  7  1  0  0  0  0
  7  8  1  0  0  0  0
  4  9  1  0  0  0  0
  9 10  1  0  0  0  0
 10 11  1  0  0  0  0
 11 12  1  0  0  0  0
 12 13  2  0  0  0  0
 12 14  2  0  0  0  0
 14 15  1  0  0  0  0
 15 16  1  0  0  0  0
 12 17  2  0  0  0  0
 17 18  1  0  0  0  0
 18 19  1  0  0  0  0
  1 20  1  0  0  0  0
  1 21  1  0  0  0  0
  1 22  1  0  0  0  0
  2 23  1  0  0  0  0
  2 24  1  0  0  0  0
  7 25  1  0  0  0  0
  7 26  1  0  0  0  0
  8 27  1  0  0  0  0
  8 28  1  0  0  0  0
  8 29  1  0  0  0  0
 10 30  1  0  0  0  0
 10 31  1  0  0  0  0
 15 32  1  0  0  0  0
 15 33  1  0  0  0  0
 16 34  1  0  0  0  0
 16 35  1  0  0  0  0
 16 36  1  0  0  0  0
 18 37  1  0  0  0  0
 18 38  1  0  0  0  0
 19 39  1  0  0  0  0
 19 40  1  0  0  0  0
 19 41  1  0  0  0  0
M  END
