 xtb: 6.7.1 (edcfbbe)
          04092505213D

 41 40  0     0  0            999 V2000
    4.4007    0.2850   -2.4578 C   0  0  0  0  0  0  0  0  0  0  0  0
    4.9001   -0.3664   -1.1848 C   0  0  0  0  0  0  0  0  0  0  0  0
    3.8298   -0.9115   -0.3910 O   0  0  0  0  0  0  0  0  0  0  0  0
    2.6981   -0.0065    0.2630 P   0  0  0  0  0  0  0  0  0  0  0  0
    3.2699    1.7024    1.0183 S   0  0  0  0  0  0  0  0  0  0  0  0
    2.1106   -0.9551    1.3743 O   0  0  0  0  0  0  0  0  0  0  0  0
    1.6461   -2.3058    1.1230 C   0  0  0  0  0  0  0  0  0  0  0  0
    1.0690   -2.8272    2.4219 C   0  0  0  0  0  0  0  0  0  0  0  0
    1.1939    0.1054   -1.2495 S   0  0  0  0  0  0  0  0  0  0  0  0
    0.1786    1.3307   -0.3858 C   0  0  0  0  0  0  0  0  0  0  0  0
   -0.8742    0.6143    0.9040 S   0  0  0  0  0  0  0  0  0  0  0  0
   -2.5090    0.1683   -0.4072 P   0  0  0  0  0  0  0  0  0  0  0  0
   -2.1290   -0.9393   -1.9707 S   0  0  0  0  0  0  0  0  0  0  0  0
   -3.0311    1.5991   -0.8272 O   0  0  0  0  0  0  0  0  0  0  0  0
   -3.5303    2.5843    0.1128 C   0  0  0  0  0  0  0  0  0  0  0  0
   -5.0389    2.5070    0.2249 C   0  0  0  0  0  0  0  0  0  0  0  0
   -3.6395   -0.3666    0.5706 O   0  0  0  0  0  0  0  0  0  0  0  0
   -3.7954   -1.7669    0.8689 C   0  0  0  0  0  0  0  0  0  0  0  0
   -2.6005   -2.3215    1.6147 C   0  0  0  0  0  0  0  0  0  0  0  0
    3.8316    1.1823   -2.2183 H   0  0  0  0  0  0  0  0  0  0  0  0
    5.2489    0.5618   -3.0756 H   0  0  0  0  0  0  0  0  0  0  0  0
    3.7600   -0.3994   -3.0089 H   0  0  0  0  0  0  0  0  0  0  0  0
    5.4475    0.3566   -0.5725 H   0  0  0  0  0  0  0  0  0  0  0  0
    5.5317   -1.2308   -1.3944 H   0  0  0  0  0  0  0  0  0  0  0  0
    0.8949   -2.2714    0.3273 H   0  0  0  0  0  0  0  0  0  0  0  0
    2.4945   -2.9034    0.7845 H   0  0  0  0  0  0  0  0  0  0  0  0
    0.2731   -2.1709    2.7621 H   0  0  0  0  0  0  0  0  0  0  0  0
    0.6734   -3.8249    2.2629 H   0  0  0  0  0  0  0  0  0  0  0  0
    1.8422   -2.8608    3.1837 H   0  0  0  0  0  0  0  0  0  0  0  0
   -0.4454    1.8107   -1.1375 H   0  0  0  0  0  0  0  0  0  0  0  0
    0.8391    2.0513    0.0999 H   0  0  0  0  0  0  0  0  0  0  0  0
   -3.0516    2.4246    1.0828 H   0  0  0  0  0  0  0  0  0  0  0  0
   -3.2132    3.5423   -0.3037 H   0  0  0  0  0  0  0  0  0  0  0  0
   -5.3872    3.3110    0.8658 H   0  0  0  0  0  0  0  0  0  0  0  0
   -5.4904    2.6105   -0.7581 H   0  0  0  0  0  0  0  0  0  0  0  0
   -5.3383    1.5533    0.6504 H   0  0  0  0  0  0  0  0  0  0  0  0
   -4.7040   -1.8066    1.4711 H   0  0  0  0  0  0  0  0  0  0  0  0
   -3.9452   -2.3043   -0.0723 H   0  0  0  0  0  0  0  0  0  0  0  0
   -2.8018   -3.3455    1.9119 H   0  0  0  0  0  0  0  0  0  0  0  0
   -1.7269   -2.3075    0.9645 H   0  0  0  0  0  0  0  0  0  0  0  0
   -2.3951   -1.7208    2.4975 H   0  0  0  0  0  0  0  0  0  0  0  0
  1  2  1  0  0  0  0
  2  3  1  0  0  0  0
  3  4  2  0  0  0  0
  4  5  2  0  0  0  0
  4  6  2  0  0  0  0
  6  7  1  0  0  0  0
  7  8  1  0  0  0  0
  4  9  1  0  0  0  0
  9 10  1  0  0  0  0
 10 11  1  0  0  0  0
 11 12  1  0  0  0  0
 12 13  2  0  0  0  0
 12 14  2  0  0  0  0
 14 15  1  0  0  0  0
 15 16  1  0  0  0  0
 12 17  2  0  0  0  0
 17 18  1  0  0  0  0
 18 19  1  0  0  0  0
  1 20  1  0  0  0  0
  1 21  1  0  0  0  0
  1 22  1  0  0  0  0
  2 23  1  0  0  0  0
  2 24  1  0  0  0  0
  7 25  1  0  0  0  0
  7 26  1  0  0  0  0
  8 27  1  0  0  0  0
  8 28  1  0  0  0  0
  8 29  1  0  0  0  0
 10 30  1  0  0  0  0
 10 31  1  0  0  0  0
 15 32  1  0  0  0  0
 15 33  1  0  0  0  0
 16 34  1  0  0  0  0
 16 35  1  0  0  0  0
 16 36  1  0  0  0  0
 18 37  1  0  0  0  0
 18 38  1  0  0  0  0
 19 39  1  0  0  0  0
 19 40  1  0  0  0  0
 19 41  1  0  0  0  0
M  END
