 xtb: 6.7.1 (edcfbbe)
          04092507313D

 38 37  0     0  0            999 V2000
    5.3018   -0.8008   -1.8647 C   0  0  0  0  0  0  0  0  0  0  0  0
    4.5254   -1.3694   -0.6931 C   0  0  0  0  0  0  0  0  0  0  0  0
    3.1220   -1.3048   -1.0096 O   0  0  0  0  0  0  0  0  0  0  0  0
    2.2849   -1.9284   -0.1993 C   0  0  0  0  0  0  0  0  0  0  0  0
    2.6292   -2.6071    0.7417 O   0  0  0  0  0  0  0  0  0  0  0  0
    0.8410   -1.7570   -0.6359 C   0  0  0  0  0  0  0  0  0  0  0  0
    0.5493   -0.2985   -0.9699 C   0  0  0  0  0  0  0  0  0  0  0  0
    1.1634    0.0107   -1.8230 H   0  0  0  0  0  0  0  0  0  0  0  0
    0.9165    0.6126    0.1868 C   0  0  0  0  0  0  0  0  0  0  0  0
    1.8427    0.3718    0.9265 O   0  0  0  0  0  0  0  0  0  0  0  0
    0.1679    1.6967    0.2358 O   0  0  0  0  0  0  0  0  0  0  0  0
    0.4687    2.6854    1.2412 C   0  0  0  0  0  0  0  0  0  0  0  0
    1.5085    3.6678    0.7307 C   0  0  0  0  0  0  0  0  0  0  0  0
   -1.1624   -0.0460   -1.5318 S   0  0  0  0  0  0  0  0  0  0  0  0
   -2.1905    0.1684    0.3157 P   0  0  0  0  0  0  0  0  0  0  0  0
   -1.3645   -0.5808    1.9316 S   0  0  0  0  0  0  0  0  0  0  0  0
   -2.5967    1.6842    0.4864 O   0  0  0  0  0  0  0  0  0  0  0  0
   -3.2792    2.4151   -0.5549 C   0  0  0  0  0  0  0  0  0  0  0  0
   -3.6156   -0.4658   -0.0449 O   0  0  0  0  0  0  0  0  0  0  0  0
   -3.7766   -1.8732   -0.2520 C   0  0  0  0  0  0  0  0  0  0  0  0
    5.0940   -1.3749   -2.7627 H   0  0  0  0  0  0  0  0  0  0  0  0
    5.0182    0.2336   -2.0334 H   0  0  0  0  0  0  0  0  0  0  0  0
    6.3631   -0.8492   -1.6457 H   0  0  0  0  0  0  0  0  0  0  0  0
    4.6867   -0.7947    0.2247 H   0  0  0  0  0  0  0  0  0  0  0  0
    4.7869   -2.4137   -0.4950 H   0  0  0  0  0  0  0  0  0  0  0  0
    0.2069   -2.1088    0.1805 H   0  0  0  0  0  0  0  0  0  0  0  0
    0.6701   -2.3737   -1.5196 H   0  0  0  0  0  0  0  0  0  0  0  0
   -0.4876    3.1701    1.4400 H   0  0  0  0  0  0  0  0  0  0  0  0
    0.8174    2.1659    2.1387 H   0  0  0  0  0  0  0  0  0  0  0  0
    1.6621    4.4400    1.4770 H   0  0  0  0  0  0  0  0  0  0  0  0
    2.4515    3.1552    0.5545 H   0  0  0  0  0  0  0  0  0  0  0  0
    1.1701    4.1240   -0.1954 H   0  0  0  0  0  0  0  0  0  0  0  0
   -2.6902    2.3902   -1.4715 H   0  0  0  0  0  0  0  0  0  0  0  0
   -3.3666    3.4308   -0.1783 H   0  0  0  0  0  0  0  0  0  0  0  0
   -4.2615    1.9809   -0.7283 H   0  0  0  0  0  0  0  0  0  0  0  0
   -4.8494   -2.0482   -0.2526 H   0  0  0  0  0  0  0  0  0  0  0  0
   -3.3021   -2.4297    0.5578 H   0  0  0  0  0  0  0  0  0  0  0  0
   -3.3400   -2.1587   -1.2088 H   0  0  0  0  0  0  0  0  0  0  0  0
  1  2  1  0  0  0  0
  2  3  1  0  0  0  0
  3  4  1  0  0  0  0
  4  5  2  0  0  0  0
  4  6  1  0  0  0  0
  6  7  1  0  0  0  0
  7  8  1  0  0  0  0
  7  9  1  0  0  0  0
  9 10  2  0  0  0  0
  9 11  1  0  0  0  0
 11 12  1  0  0  0  0
 12 13  1  0  0  0  0
  7 14  1  0  0  0  0
 14 15  1  0  0  0  0
 15 16  2  0  0  0  0
 15 17  2  0  0  0  0
 17 18  1  0  0  0  0
 15 19  1  0  0  0  0
 19 20  1  0  0  0  0
  1 21  1  0  0  0  0
  1 22  1  0  0  0  0
  1 23  1  0  0  0  0
  2 24  1  0  0  0  0
  2 25  1  0  0  0  0
  6 26  1  0  0  0  0
  6 27  1  0  0  0  0
 12 28  1  0  0  0  0
 12 29  1  0  0  0  0
 13 30  1  0  0  0  0
 13 31  1  0  0  0  0
 13 32  1  0  0  0  0
 18 33  1  0  0  0  0
 18 34  1  0  0  0  0
 18 35  1  0  0  0  0
 20 36  1  0  0  0  0
 20 37  1  0  0  0  0
 20 38  1  0  0  0  0
M  END
