 xtb: 6.7.1 (edcfbbe)
          04092507313D

 38 37  0     0  0            999 V2000
    4.2605    0.4014   -2.7957 C   0  0  0  0  0  0  0  0  0  0  0  0
    4.2782   -0.5195   -1.5917 C   0  0  0  0  0  0  0  0  0  0  0  0
    2.9603   -1.0801   -1.4372 O   0  0  0  0  0  0  0  0  0  0  0  0
    2.6404   -1.6079   -0.2764 C   0  0  0  0  0  0  0  0  0  0  0  0
    3.3940   -1.7022    0.6669 O   0  0  0  0  0  0  0  0  0  0  0  0
    1.1950   -2.0762   -0.2592 C   0  0  0  0  0  0  0  0  0  0  0  0
    0.2743   -0.8604   -0.3925 C   0  0  0  0  0  0  0  0  0  0  0  0
    0.4468   -0.3539   -1.3448 H   0  0  0  0  0  0  0  0  0  0  0  0
    0.5363    0.1017    0.7518 C   0  0  0  0  0  0  0  0  0  0  0  0
   -0.1848    0.1869    1.7238 O   0  0  0  0  0  0  0  0  0  0  0  0
    1.6440    0.7717    0.5617 O   0  0  0  0  0  0  0  0  0  0  0  0
    2.0711    1.6841    1.5953 C   0  0  0  0  0  0  0  0  0  0  0  0
    2.6967    0.9412    2.7647 C   0  0  0  0  0  0  0  0  0  0  0  0
   -1.4672   -1.3902   -0.3006 S   0  0  0  0  0  0  0  0  0  0  0  0
   -2.3406    0.5217   -0.0155 P   0  0  0  0  0  0  0  0  0  0  0  0
   -1.3074    2.0475   -0.6760 S   0  0  0  0  0  0  0  0  0  0  0  0
   -3.7511    0.3303   -0.7521 O   0  0  0  0  0  0  0  0  0  0  0  0
   -3.8372    0.1855   -2.1743 C   0  0  0  0  0  0  0  0  0  0  0  0
   -2.8456    0.7053    1.4667 O   0  0  0  0  0  0  0  0  0  0  0  0
   -3.5225   -0.3385    2.1949 C   0  0  0  0  0  0  0  0  0  0  0  0
    3.5432    1.2028   -2.6420 H   0  0  0  0  0  0  0  0  0  0  0  0
    5.2482    0.8278   -2.9360 H   0  0  0  0  0  0  0  0  0  0  0  0
    3.9800   -0.1544   -3.6850 H   0  0  0  0  0  0  0  0  0  0  0  0
    4.5350    0.0140   -0.6717 H   0  0  0  0  0  0  0  0  0  0  0  0
    4.9838   -1.3450   -1.7249 H   0  0  0  0  0  0  0  0  0  0  0  0
    1.0020   -2.5978    0.6788 H   0  0  0  0  0  0  0  0  0  0  0  0
    1.0185   -2.7477   -1.0994 H   0  0  0  0  0  0  0  0  0  0  0  0
    2.7923    2.3282    1.0928 H   0  0  0  0  0  0  0  0  0  0  0  0
    1.2026    2.2671    1.9160 H   0  0  0  0  0  0  0  0  0  0  0  0
    3.1556    1.6561    3.4390 H   0  0  0  0  0  0  0  0  0  0  0  0
    1.9372    0.3802    3.3045 H   0  0  0  0  0  0  0  0  0  0  0  0
    3.4510    0.2450    2.4042 H   0  0  0  0  0  0  0  0  0  0  0  0
   -3.2602    0.9705   -2.6655 H   0  0  0  0  0  0  0  0  0  0  0  0
   -4.8929    0.2838   -2.4138 H   0  0  0  0  0  0  0  0  0  0  0  0
   -3.4636   -0.7946   -2.4699 H   0  0  0  0  0  0  0  0  0  0  0  0
   -2.8160   -1.1366    2.4221 H   0  0  0  0  0  0  0  0  0  0  0  0
   -4.3587   -0.7216    1.6128 H   0  0  0  0  0  0  0  0  0  0  0  0
   -3.8685    0.1359    3.1093 H   0  0  0  0  0  0  0  0  0  0  0  0
  1  2  1  0  0  0  0
  2  3  1  0  0  0  0
  3  4  1  0  0  0  0
  4  5  2  0  0  0  0
  4  6  1  0  0  0  0
  6  7  1  0  0  0  0
  7  8  1  0  0  0  0
  7  9  1  0  0  0  0
  9 10  2  0  0  0  0
  9 11  4  0  0  0  0
 11 12  1  0  0  0  0
 12 13  1  0  0  0  0
  7 14  1  0  0  0  0
 14 15  1  0  0  0  0
 15 16  2  0  0  0  0
 15 17  1  0  0  0  0
 17 18  1  0  0  0  0
 15 19  2  0  0  0  0
 19 20  1  0  0  0  0
  1 21  1  0  0  0  0
  1 22  1  0  0  0  0
  1 23  1  0  0  0  0
  2 24  1  0  0  0  0
  2 25  1  0  0  0  0
  6 26  1  0  0  0  0
  6 27  1  0  0  0  0
 12 28  1  0  0  0  0
 12 29  1  0  0  0  0
 13 30  1  0  0  0  0
 13 31  1  0  0  0  0
 13 32  1  0  0  0  0
 18 33  1  0  0  0  0
 18 34  1  0  0  0  0
 18 35  1  0  0  0  0
 20 36  1  0  0  0  0
 20 37  1  0  0  0  0
 20 38  1  0  0  0  0
M  END
