 xtb: 6.7.1 (edcfbbe)
          04092513583D

 41 40  0     0  0            999 V2000
    3.4818   -2.3960    1.9418 C   0  0  0  0  0  0  0  0  0  0  0  0
    3.4971   -0.8926    1.7531 C   0  0  0  0  0  0  0  0  0  0  0  0
    3.6015   -0.5503    0.3454 O   0  0  0  0  0  0  0  0  0  0  0  0
    2.3878    0.0079   -0.5049 P   0  0  0  0  0  0  0  0  0  0  0  0
    2.9386    0.5506   -2.2979 S   0  0  0  0  0  0  0  0  0  0  0  0
    1.7062    1.1537    0.3923 O   0  0  0  0  0  0  0  0  0  0  0  0
    1.9455    2.5547    0.1740 C   0  0  0  0  0  0  0  0  0  0  0  0
    3.2918    2.9837    0.7222 C   0  0  0  0  0  0  0  0  0  0  0  0
    0.9038   -1.4876   -0.3564 S   0  0  0  0  0  0  0  0  0  0  0  0
   -0.1655   -0.9267   -1.7049 C   0  0  0  0  0  0  0  0  0  0  0  0
   -0.9252    0.7114   -1.4494 S   0  0  0  0  0  0  0  0  0  0  0  0
   -2.5023    0.2265   -0.1255 P   0  0  0  0  0  0  0  0  0  0  0  0
   -3.4977    1.7784    0.5344 S   0  0  0  0  0  0  0  0  0  0  0  0
   -1.8531   -0.6906    1.0011 O   0  0  0  0  0  0  0  0  0  0  0  0
   -1.1280   -0.1151    2.1031 C   0  0  0  0  0  0  0  0  0  0  0  0
   -0.7129   -1.2489    3.0176 C   0  0  0  0  0  0  0  0  0  0  0  0
   -3.3105   -0.8415   -0.9716 O   0  0  0  0  0  0  0  0  0  0  0  0
   -4.6972   -1.1312   -0.6781 C   0  0  0  0  0  0  0  0  0  0  0  0
   -4.8578   -1.8624    0.6382 C   0  0  0  0  0  0  0  0  0  0  0  0
    3.4781   -2.6158    3.0050 H   0  0  0  0  0  0  0  0  0  0  0  0
    2.5973   -2.8314    1.4822 H   0  0  0  0  0  0  0  0  0  0  0  0
    4.3650   -2.8380    1.4892 H   0  0  0  0  0  0  0  0  0  0  0  0
    4.3835   -0.4489    2.2101 H   0  0  0  0  0  0  0  0  0  0  0  0
    2.5975   -0.4312    2.1666 H   0  0  0  0  0  0  0  0  0  0  0  0
    1.8800    2.7571   -0.8998 H   0  0  0  0  0  0  0  0  0  0  0  0
    1.1206    3.0515    0.6882 H   0  0  0  0  0  0  0  0  0  0  0  0
    4.0915    2.4821    0.1781 H   0  0  0  0  0  0  0  0  0  0  0  0
    3.4002    4.0568    0.5972 H   0  0  0  0  0  0  0  0  0  0  0  0
    3.3698    2.7372    1.7779 H   0  0  0  0  0  0  0  0  0  0  0  0
   -0.9446   -1.6745   -1.8238 H   0  0  0  0  0  0  0  0  0  0  0  0
    0.4314   -0.8232   -2.6112 H   0  0  0  0  0  0  0  0  0  0  0  0
   -0.2576    0.4194    1.7097 H   0  0  0  0  0  0  0  0  0  0  0  0
   -1.7804    0.6049    2.6076 H   0  0  0  0  0  0  0  0  0  0  0  0
   -0.0939   -1.9533    2.4686 H   0  0  0  0  0  0  0  0  0  0  0  0
   -0.1525   -0.8455    3.8544 H   0  0  0  0  0  0  0  0  0  0  0  0
   -1.5914   -1.7671    3.3899 H   0  0  0  0  0  0  0  0  0  0  0  0
   -5.2522   -0.1878   -0.6647 H   0  0  0  0  0  0  0  0  0  0  0  0
   -5.0212   -1.7402   -1.5229 H   0  0  0  0  0  0  0  0  0  0  0  0
   -5.8987   -2.1449    0.7652 H   0  0  0  0  0  0  0  0  0  0  0  0
   -4.2363   -2.7536    0.6549 H   0  0  0  0  0  0  0  0  0  0  0  0
   -4.5668   -1.2116    1.4615 H   0  0  0  0  0  0  0  0  0  0  0  0
  1  2  1  0  0  0  0
  2  3  1  0  0  0  0
  3  4  2  0  0  0  0
  4  5  2  0  0  0  0
  4  6  1  0  0  0  0
  6  7  1  0  0  0  0
  7  8  1  0  0  0  0
  4  9  1  0  0  0  0
  9 10  1  0  0  0  0
 10 11  1  0  0  0  0
 11 12  1  0  0  0  0
 12 13  2  0  0  0  0
 12 14  2  0  0  0  0
 14 15  1  0  0  0  0
 15 16  1  0  0  0  0
 12 17  2  0  0  0  0
 17 18  1  0  0  0  0
 18 19  1  0  0  0  0
  1 20  1  0  0  0  0
  1 21  1  0  0  0  0
  1 22  1  0  0  0  0
  2 23  1  0  0  0  0
  2 24  1  0  0  0  0
  7 25  1  0  0  0  0
  7 26  1  0  0  0  0
  8 27  1  0  0  0  0
  8 28  1  0  0  0  0
  8 29  1  0  0  0  0
 10 30  1  0  0  0  0
 10 31  1  0  0  0  0
 15 32  1  0  0  0  0
 15 33  1  0  0  0  0
 16 34  1  0  0  0  0
 16 35  1  0  0  0  0
 16 36  1  0  0  0  0
 18 37  1  0  0  0  0
 18 38  1  0  0  0  0
 19 39  1  0  0  0  0
 19 40  1  0  0  0  0
 19 41  1  0  0  0  0
M  END
