 xtb: 6.7.1 (edcfbbe)
          04092505213D

 41 40  0     0  0            999 V2000
    2.9266    0.6337   -2.8251 C   0  0  0  0  0  0  0  0  0  0  0  0
    3.6511    1.2166   -1.6293 C   0  0  0  0  0  0  0  0  0  0  0  0
    3.4887    0.4117   -0.4480 O   0  0  0  0  0  0  0  0  0  0  0  0
    2.0806    0.1864    0.2595 P   0  0  0  0  0  0  0  0  0  0  0  0
    1.0088    1.8229    0.3673 S   0  0  0  0  0  0  0  0  0  0  0  0
    2.4880   -0.3078    1.6953 O   0  0  0  0  0  0  0  0  0  0  0  0
    3.3760   -1.4274    1.9560 C   0  0  0  0  0  0  0  0  0  0  0  0
    2.9340   -2.0815    3.2491 C   0  0  0  0  0  0  0  0  0  0  0  0
    1.4208   -1.5584   -0.7777 S   0  0  0  0  0  0  0  0  0  0  0  0
    0.1173   -2.2084    0.3322 C   0  0  0  0  0  0  0  0  0  0  0  0
   -0.6752   -0.9586    1.3760 S   0  0  0  0  0  0  0  0  0  0  0  0
   -1.8980   -0.0711   -0.1041 P   0  0  0  0  0  0  0  0  0  0  0  0
   -1.2579    0.3073   -1.9198 S   0  0  0  0  0  0  0  0  0  0  0  0
   -2.5452    1.1462    0.6761 O   0  0  0  0  0  0  0  0  0  0  0  0
   -2.2681    2.5396    0.4521 C   0  0  0  0  0  0  0  0  0  0  0  0
   -3.5691    3.3103    0.5494 C   0  0  0  0  0  0  0  0  0  0  0  0
   -3.0313   -1.1814   -0.0510 O   0  0  0  0  0  0  0  0  0  0  0  0
   -4.0118   -1.3449   -1.0950 C   0  0  0  0  0  0  0  0  0  0  0  0
   -4.9649   -0.1705   -1.1654 C   0  0  0  0  0  0  0  0  0  0  0  0
    3.2195   -0.4018   -2.9805 H   0  0  0  0  0  0  0  0  0  0  0  0
    1.8481    0.6721   -2.6666 H   0  0  0  0  0  0  0  0  0  0  0  0
    3.1662    1.2145   -3.7099 H   0  0  0  0  0  0  0  0  0  0  0  0
    3.2844    2.2248   -1.4121 H   0  0  0  0  0  0  0  0  0  0  0  0
    4.7311    1.2368   -1.7814 H   0  0  0  0  0  0  0  0  0  0  0  0
    3.3316   -2.1205    1.1112 H   0  0  0  0  0  0  0  0  0  0  0  0
    4.3867   -1.0230    2.0339 H   0  0  0  0  0  0  0  0  0  0  0  0
    3.0074   -1.3718    4.0679 H   0  0  0  0  0  0  0  0  0  0  0  0
    1.9004   -2.4099    3.1736 H   0  0  0  0  0  0  0  0  0  0  0  0
    3.5720   -2.9352    3.4534 H   0  0  0  0  0  0  0  0  0  0  0  0
    0.5630   -2.9359    1.0064 H   0  0  0  0  0  0  0  0  0  0  0  0
   -0.6250   -2.6796   -0.3102 H   0  0  0  0  0  0  0  0  0  0  0  0
   -1.5526    2.8610    1.2131 H   0  0  0  0  0  0  0  0  0  0  0  0
   -1.7992    2.6556   -0.5311 H   0  0  0  0  0  0  0  0  0  0  0  0
   -4.0370    3.1226    1.5114 H   0  0  0  0  0  0  0  0  0  0  0  0
   -3.3561    4.3698    0.4528 H   0  0  0  0  0  0  0  0  0  0  0  0
   -4.2506    3.0085   -0.2413 H   0  0  0  0  0  0  0  0  0  0  0  0
   -3.4858   -1.4691   -2.0470 H   0  0  0  0  0  0  0  0  0  0  0  0
   -4.5251   -2.2690   -0.8263 H   0  0  0  0  0  0  0  0  0  0  0  0
   -5.4026    0.0177   -0.1884 H   0  0  0  0  0  0  0  0  0  0  0  0
   -4.4262    0.7190   -1.4902 H   0  0  0  0  0  0  0  0  0  0  0  0
   -5.7520   -0.3862   -1.8812 H   0  0  0  0  0  0  0  0  0  0  0  0
  1  2  1  0  0  0  0
  2  3  1  0  0  0  0
  3  4  2  0  0  0  0
  4  5  2  0  0  0  0
  4  6  2  0  0  0  0
  6  7  1  0  0  0  0
  7  8  1  0  0  0  0
  4  9  1  0  0  0  0
  9 10  1  0  0  0  0
 10 11  1  0  0  0  0
 11 12  1  0  0  0  0
 12 13  2  0  0  0  0
 12 14  2  0  0  0  0
 14 15  1  0  0  0  0
 15 16  1  0  0  0  0
 12 17  2  0  0  0  0
 17 18  1  0  0  0  0
 18 19  1  0  0  0  0
  1 20  1  0  0  0  0
  1 21  1  0  0  0  0
  1 22  1  0  0  0  0
  2 23  1  0  0  0  0
  2 24  1  0  0  0  0
  7 25  1  0  0  0  0
  7 26  1  0  0  0  0
  8 27  1  0  0  0  0
  8 28  1  0  0  0  0
  8 29  1  0  0  0  0
 10 30  1  0  0  0  0
 10 31  1  0  0  0  0
 15 32  1  0  0  0  0
 15 33  1  0  0  0  0
 16 34  1  0  0  0  0
 16 35  1  0  0  0  0
 16 36  1  0  0  0  0
 18 37  1  0  0  0  0
 18 38  1  0  0  0  0
 19 39  1  0  0  0  0
 19 40  1  0  0  0  0
 19 41  1  0  0  0  0
M  END
