 xtb: 6.7.1 (edcfbbe)
          04032519583D

 10  9  0     0  0            999 V2000
   -0.6931   -0.5954   -0.3111 C   0  0  0  0  0  0  0  0  0  0  0  0
    0.7078   -0.5883    0.3078 C   0  0  0  0  0  0  0  0  0  0  0  0
    1.4782    0.5053   -0.1386 O   0  0  0  0  0  0  0  0  0  0  0  0
   -1.4469    0.5312    0.0843 O   0  0  0  0  0  0  0  0  0  0  0  0
   -1.2071   -1.5267   -0.0489 H   0  0  0  0  0  0  0  0  0  0  0  0
   -0.6108   -0.5283   -1.3980 H   0  0  0  0  0  0  0  0  0  0  0  0
    1.2494   -1.4880    0.0113 H   0  0  0  0  0  0  0  0  0  0  0  0
    0.6299   -0.5662    1.4048 H   0  0  0  0  0  0  0  0  0  0  0  0
    0.9248    1.3001   -0.0945 H   0  0  0  0  0  0  0  0  0  0  0  0
   -1.6582    0.4615    1.0260 H   0  0  0  0  0  0  0  0  0  0  0  0
  1  2  1  0  0  0  0
  2  3  1  0  0  0  0
  1  4  1  0  0  0  0
  1  5  1  0  0  0  0
  1  6  1  0  0  0  0
  2  7  1  0  0  0  0
  2  8  1  0  0  0  0
  3  9  1  0  0  0  0
  4 10  1  0  0  0  0
M  END
