 xtb: 6.7.1 (edcfbbe)
          04092505203D

 41 40  0     0  0            999 V2000
    2.3354   -2.3972    2.4498 C   0  0  0  0  0  0  0  0  0  0  0  0
    1.4601   -1.8105    1.3601 C   0  0  0  0  0  0  0  0  0  0  0  0
    1.8921   -0.4653    1.0930 O   0  0  0  0  0  0  0  0  0  0  0  0
    2.3297    0.0849   -0.3368 P   0  0  0  0  0  0  0  0  0  0  0  0
    2.9369   -1.2594   -1.6183 S   0  0  0  0  0  0  0  0  0  0  0  0
    3.4588    1.1228    0.0247 O   0  0  0  0  0  0  0  0  0  0  0  0
    3.4828    1.9839    1.1905 C   0  0  0  0  0  0  0  0  0  0  0  0
    2.6278    3.2193    0.9985 C   0  0  0  0  0  0  0  0  0  0  0  0
    0.7099    1.3040   -1.0181 S   0  0  0  0  0  0  0  0  0  0  0  0
   -0.0893    0.0898   -2.0876 C   0  0  0  0  0  0  0  0  0  0  0  0
   -0.8420   -1.2866   -1.1717 S   0  0  0  0  0  0  0  0  0  0  0  0
   -2.1689   -0.1071   -0.0313 P   0  0  0  0  0  0  0  0  0  0  0  0
   -2.9580    1.4800   -0.8777 S   0  0  0  0  0  0  0  0  0  0  0  0
   -1.2620    0.1475    1.2422 O   0  0  0  0  0  0  0  0  0  0  0  0
   -1.5777    1.1783    2.2080 C   0  0  0  0  0  0  0  0  0  0  0  0
   -0.4267    1.2520    3.1889 C   0  0  0  0  0  0  0  0  0  0  0  0
   -3.2333   -1.1302    0.5610 O   0  0  0  0  0  0  0  0  0  0  0  0
   -4.4690   -1.4311   -0.1105 C   0  0  0  0  0  0  0  0  0  0  0  0
   -4.2436   -2.2167   -1.3861 C   0  0  0  0  0  0  0  0  0  0  0  0
    2.2919   -1.7790    3.3421 H   0  0  0  0  0  0  0  0  0  0  0  0
    1.9840   -3.3961    2.6867 H   0  0  0  0  0  0  0  0  0  0  0  0
    3.3661   -2.4542    2.1078 H   0  0  0  0  0  0  0  0  0  0  0  0
    0.4144   -1.7496    1.6704 H   0  0  0  0  0  0  0  0  0  0  0  0
    1.5316   -2.4009    0.4405 H   0  0  0  0  0  0  0  0  0  0  0  0
    3.1604    1.4057    2.0583 H   0  0  0  0  0  0  0  0  0  0  0  0
    4.5380    2.2437    1.2893 H   0  0  0  0  0  0  0  0  0  0  0  0
    2.7397    3.8662    1.8631 H   0  0  0  0  0  0  0  0  0  0  0  0
    2.9374    3.7560    0.1058 H   0  0  0  0  0  0  0  0  0  0  0  0
    1.5788    2.9501    0.8890 H   0  0  0  0  0  0  0  0  0  0  0  0
    0.6479   -0.3543   -2.7564 H   0  0  0  0  0  0  0  0  0  0  0  0
   -0.8600    0.6269   -2.6388 H   0  0  0  0  0  0  0  0  0  0  0  0
   -1.7135    2.1214    1.6685 H   0  0  0  0  0  0  0  0  0  0  0  0
   -2.5152    0.9132    2.7034 H   0  0  0  0  0  0  0  0  0  0  0  0
    0.5032    1.4226    2.6531 H   0  0  0  0  0  0  0  0  0  0  0  0
   -0.5984    2.0700    3.8806 H   0  0  0  0  0  0  0  0  0  0  0  0
   -0.3464    0.3208    3.7425 H   0  0  0  0  0  0  0  0  0  0  0  0
   -5.0341   -2.0063    0.6240 H   0  0  0  0  0  0  0  0  0  0  0  0
   -4.9835   -0.4887   -0.3245 H   0  0  0  0  0  0  0  0  0  0  0  0
   -3.6417   -3.0995   -1.1856 H   0  0  0  0  0  0  0  0  0  0  0  0
   -5.2015   -2.5176   -1.7979 H   0  0  0  0  0  0  0  0  0  0  0  0
   -3.7241   -1.5980   -2.1169 H   0  0  0  0  0  0  0  0  0  0  0  0
  1  2  1  0  0  0  0
  2  3  1  0  0  0  0
  3  4  2  0  0  0  0
  4  5  2  0  0  0  0
  4  6  2  0  0  0  0
  6  7  1  0  0  0  0
  7  8  1  0  0  0  0
  4  9  1  0  0  0  0
  9 10  1  0  0  0  0
 10 11  1  0  0  0  0
 11 12  1  0  0  0  0
 12 13  2  0  0  0  0
 12 14  2  0  0  0  0
 14 15  1  0  0  0  0
 15 16  1  0  0  0  0
 12 17  2  0  0  0  0
 17 18  1  0  0  0  0
 18 19  1  0  0  0  0
  1 20  1  0  0  0  0
  1 21  1  0  0  0  0
  1 22  1  0  0  0  0
  2 23  1  0  0  0  0
  2 24  1  0  0  0  0
  7 25  1  0  0  0  0
  7 26  1  0  0  0  0
  8 27  1  0  0  0  0
  8 28  1  0  0  0  0
  8 29  1  0  0  0  0
 10 30  1  0  0  0  0
 10 31  1  0  0  0  0
 15 32  1  0  0  0  0
 15 33  1  0  0  0  0
 16 34  1  0  0  0  0
 16 35  1  0  0  0  0
 16 36  1  0  0  0  0
 18 37  1  0  0  0  0
 18 38  1  0  0  0  0
 19 39  1  0  0  0  0
 19 40  1  0  0  0  0
 19 41  1  0  0  0  0
M  END
