 xtb: 6.7.1 (edcfbbe)
          04092505213D

 41 40  0     0  0            999 V2000
    4.6241    1.8003    0.2785 C   0  0  0  0  0  0  0  0  0  0  0  0
    4.0651    1.2605   -1.0217 C   0  0  0  0  0  0  0  0  0  0  0  0
    3.2991    0.0533   -0.8467 O   0  0  0  0  0  0  0  0  0  0  0  0
    2.1164   -0.1508    0.1918 P   0  0  0  0  0  0  0  0  0  0  0  0
    2.6036   -0.5084    2.0609 S   0  0  0  0  0  0  0  0  0  0  0  0
    1.3121   -1.3259   -0.5050 O   0  0  0  0  0  0  0  0  0  0  0  0
    1.4207   -2.6978   -0.0907 C   0  0  0  0  0  0  0  0  0  0  0  0
    2.7437   -3.2932   -0.5222 C   0  0  0  0  0  0  0  0  0  0  0  0
    0.8577    1.5022   -0.1556 S   0  0  0  0  0  0  0  0  0  0  0  0
   -0.1741    1.2881    1.3205 C   0  0  0  0  0  0  0  0  0  0  0  0
   -1.1005   -0.2726    1.3419 S   0  0  0  0  0  0  0  0  0  0  0  0
   -2.1734   -0.0972   -0.4814 P   0  0  0  0  0  0  0  0  0  0  0  0
   -1.3539   -0.4710   -2.2144 S   0  0  0  0  0  0  0  0  0  0  0  0
   -2.7891    1.3673   -0.3064 O   0  0  0  0  0  0  0  0  0  0  0  0
   -2.8609    2.3600   -1.3511 C   0  0  0  0  0  0  0  0  0  0  0  0
   -2.0514    3.5833   -0.9696 C   0  0  0  0  0  0  0  0  0  0  0  0
   -3.3733   -1.1064   -0.2585 O   0  0  0  0  0  0  0  0  0  0  0  0
   -4.2691   -1.0587    0.8807 C   0  0  0  0  0  0  0  0  0  0  0  0
   -3.9798   -2.2077    1.8257 C   0  0  0  0  0  0  0  0  0  0  0  0
    5.2586    2.6553    0.0682 H   0  0  0  0  0  0  0  0  0  0  0  0
    3.8139    2.1126    0.9364 H   0  0  0  0  0  0  0  0  0  0  0  0
    5.2066    1.0362    0.7880 H   0  0  0  0  0  0  0  0  0  0  0  0
    4.8610    0.9602   -1.7057 H   0  0  0  0  0  0  0  0  0  0  0  0
    3.4226    2.0015   -1.5062 H   0  0  0  0  0  0  0  0  0  0  0  0
    1.3061   -2.7450    0.9982 H   0  0  0  0  0  0  0  0  0  0  0  0
    0.5728   -3.1877   -0.5732 H   0  0  0  0  0  0  0  0  0  0  0  0
    2.7778   -4.3418   -0.2445 H   0  0  0  0  0  0  0  0  0  0  0  0
    2.8637   -3.1952   -1.5980 H   0  0  0  0  0  0  0  0  0  0  0  0
    3.5585   -2.7642   -0.0281 H   0  0  0  0  0  0  0  0  0  0  0  0
   -0.8650    2.1266    1.3498 H   0  0  0  0  0  0  0  0  0  0  0  0
    0.4608    1.2615    2.2068 H   0  0  0  0  0  0  0  0  0  0  0  0
   -2.4949    1.9182   -2.2838 H   0  0  0  0  0  0  0  0  0  0  0  0
   -3.9205    2.6022   -1.4537 H   0  0  0  0  0  0  0  0  0  0  0  0
   -2.3877    3.9736   -0.0130 H   0  0  0  0  0  0  0  0  0  0  0  0
   -0.9931    3.3353   -0.9068 H   0  0  0  0  0  0  0  0  0  0  0  0
   -2.1882    4.3439   -1.7313 H   0  0  0  0  0  0  0  0  0  0  0  0
   -4.1624   -0.0934    1.3804 H   0  0  0  0  0  0  0  0  0  0  0  0
   -5.2685   -1.1433    0.4507 H   0  0  0  0  0  0  0  0  0  0  0  0
   -4.0459   -3.1521    1.2926 H   0  0  0  0  0  0  0  0  0  0  0  0
   -2.9810   -2.1123    2.2466 H   0  0  0  0  0  0  0  0  0  0  0  0
   -4.7075   -2.1978    2.6309 H   0  0  0  0  0  0  0  0  0  0  0  0
  1  2  1  0  0  0  0
  2  3  1  0  0  0  0
  3  4  2  0  0  0  0
  4  5  2  0  0  0  0
  4  6  2  0  0  0  0
  6  7  1  0  0  0  0
  7  8  1  0  0  0  0
  4  9  1  0  0  0  0
  9 10  1  0  0  0  0
 10 11  1  0  0  0  0
 11 12  1  0  0  0  0
 12 13  2  0  0  0  0
 12 14  2  0  0  0  0
 14 15  1  0  0  0  0
 15 16  1  0  0  0  0
 12 17  2  0  0  0  0
 17 18  1  0  0  0  0
 18 19  1  0  0  0  0
  1 20  1  0  0  0  0
  1 21  1  0  0  0  0
  1 22  1  0  0  0  0
  2 23  1  0  0  0  0
  2 24  1  0  0  0  0
  7 25  1  0  0  0  0
  7 26  1  0  0  0  0
  8 27  1  0  0  0  0
  8 28  1  0  0  0  0
  8 29  1  0  0  0  0
 10 30  1  0  0  0  0
 10 31  1  0  0  0  0
 15 32  1  0  0  0  0
 15 33  1  0  0  0  0
 16 34  1  0  0  0  0
 16 35  1  0  0  0  0
 16 36  1  0  0  0  0
 18 37  1  0  0  0  0
 18 38  1  0  0  0  0
 19 39  1  0  0  0  0
 19 40  1  0  0  0  0
 19 41  1  0  0  0  0
M  END
