 xtb: 6.7.1 (edcfbbe)
          04092505213D

 41 40  0     0  0            999 V2000
    5.0248   -1.1896   -1.8169 C   0  0  0  0  0  0  0  0  0  0  0  0
    4.6673   -0.2888   -0.6521 C   0  0  0  0  0  0  0  0  0  0  0  0
    3.5018    0.5119   -0.9693 O   0  0  0  0  0  0  0  0  0  0  0  0
    2.0586    0.2182   -0.3840 P   0  0  0  0  0  0  0  0  0  0  0  0
    0.8284    1.6067   -0.9991 S   0  0  0  0  0  0  0  0  0  0  0  0
    2.1989    0.0602    1.2025 O   0  0  0  0  0  0  0  0  0  0  0  0
    2.0966    1.1861    2.0919 C   0  0  0  0  0  0  0  0  0  0  0  0
    3.3113    2.0855    1.9957 C   0  0  0  0  0  0  0  0  0  0  0  0
    1.7477   -1.8096   -0.8626 S   0  0  0  0  0  0  0  0  0  0  0  0
    0.1787   -2.1496   -0.0232 C   0  0  0  0  0  0  0  0  0  0  0  0
   -1.2928   -1.7879   -1.0377 S   0  0  0  0  0  0  0  0  0  0  0  0
   -2.1468   -0.1724    0.0173 P   0  0  0  0  0  0  0  0  0  0  0  0
   -1.2618    0.2536    1.7206 S   0  0  0  0  0  0  0  0  0  0  0  0
   -3.6833   -0.5669    0.1765 O   0  0  0  0  0  0  0  0  0  0  0  0
   -4.1544   -1.4303    1.2304 C   0  0  0  0  0  0  0  0  0  0  0  0
   -4.7898   -0.6138    2.3391 C   0  0  0  0  0  0  0  0  0  0  0  0
   -2.2419    0.8884   -1.1443 O   0  0  0  0  0  0  0  0  0  0  0  0
   -3.1336    2.0239   -1.1558 C   0  0  0  0  0  0  0  0  0  0  0  0
   -2.8291    2.9979   -0.0372 C   0  0  0  0  0  0  0  0  0  0  0  0
    5.9446   -1.7179   -1.5873 H   0  0  0  0  0  0  0  0  0  0  0  0
    4.2320   -1.9128   -1.9956 H   0  0  0  0  0  0  0  0  0  0  0  0
    5.1658   -0.5951   -2.7153 H   0  0  0  0  0  0  0  0  0  0  0  0
    5.4574    0.4397   -0.4609 H   0  0  0  0  0  0  0  0  0  0  0  0
    4.4686   -0.8681    0.2527 H   0  0  0  0  0  0  0  0  0  0  0  0
    1.1827    1.7387    1.8523 H   0  0  0  0  0  0  0  0  0  0  0  0
    1.9939    0.7342    3.0795 H   0  0  0  0  0  0  0  0  0  0  0  0
    3.2156    2.8924    2.7153 H   0  0  0  0  0  0  0  0  0  0  0  0
    4.2172    1.5221    2.2035 H   0  0  0  0  0  0  0  0  0  0  0  0
    3.3753    2.5105    0.9941 H   0  0  0  0  0  0  0  0  0  0  0  0
    0.1226   -1.5701    0.9029 H   0  0  0  0  0  0  0  0  0  0  0  0
    0.1786   -3.2182    0.1734 H   0  0  0  0  0  0  0  0  0  0  0  0
   -4.8800   -2.0895    0.7510 H   0  0  0  0  0  0  0  0  0  0  0  0
   -3.3194   -2.0220    1.6151 H   0  0  0  0  0  0  0  0  0  0  0  0
   -4.0428    0.0230    2.8083 H   0  0  0  0  0  0  0  0  0  0  0  0
   -5.5845    0.0090    1.9382 H   0  0  0  0  0  0  0  0  0  0  0  0
   -5.2008   -1.2851    3.0860 H   0  0  0  0  0  0  0  0  0  0  0  0
   -2.9522    2.4727   -2.1338 H   0  0  0  0  0  0  0  0  0  0  0  0
   -4.1602    1.6553   -1.0948 H   0  0  0  0  0  0  0  0  0  0  0  0
   -3.0294    2.5378    0.9295 H   0  0  0  0  0  0  0  0  0  0  0  0
   -1.7794    3.2839   -0.0750 H   0  0  0  0  0  0  0  0  0  0  0  0
   -3.4484    3.8824   -0.1465 H   0  0  0  0  0  0  0  0  0  0  0  0
  1  2  1  0  0  0  0
  2  3  1  0  0  0  0
  3  4  2  0  0  0  0
  4  5  2  0  0  0  0
  4  6  1  0  0  0  0
  6  7  1  0  0  0  0
  7  8  1  0  0  0  0
  4  9  1  0  0  0  0
  9 10  1  0  0  0  0
 10 11  1  0  0  0  0
 11 12  1  0  0  0  0
 12 13  2  0  0  0  0
 12 14  2  0  0  0  0
 14 15  1  0  0  0  0
 15 16  1  0  0  0  0
 12 17  2  0  0  0  0
 17 18  1  0  0  0  0
 18 19  1  0  0  0  0
  1 20  1  0  0  0  0
  1 21  1  0  0  0  0
  1 22  1  0  0  0  0
  2 23  1  0  0  0  0
  2 24  1  0  0  0  0
  7 25  1  0  0  0  0
  7 26  1  0  0  0  0
  8 27  1  0  0  0  0
  8 28  1  0  0  0  0
  8 29  1  0  0  0  0
 10 30  1  0  0  0  0
 10 31  1  0  0  0  0
 15 32  1  0  0  0  0
 15 33  1  0  0  0  0
 16 34  1  0  0  0  0
 16 35  1  0  0  0  0
 16 36  1  0  0  0  0
 18 37  1  0  0  0  0
 18 38  1  0  0  0  0
 19 39  1  0  0  0  0
 19 40  1  0  0  0  0
 19 41  1  0  0  0  0
M  END
