9
 xtb: 6.7.1 (edcfbbe)
C            1.25030645957902       -0.17913445804232        0.00000382651136
C           -0.10656987915188        0.44454619328016        0.00000612848386
C           -1.25682194192177       -0.22806826133246       -0.00000383504676
H            1.82577795696646        0.14042690751574        0.87761666738232
H            1.82573686823105        0.14035009576736       -0.87766475614430
H            1.19150224981930       -1.27153586659010        0.00005098457914
H           -0.13199847574049        1.53497021688466        0.00000426324917
H           -2.21426966489786        0.28591654970383        0.00000195331297
H           -1.27482110617889       -1.31643956851129        0.00000668271817
