41
 xtb: 6.7.1 (edcfbbe)
C            4.28221805967555       -2.10677645096847       -2.08931182132732
C            4.74155703682283       -1.57229301922672       -0.75647500671849
O            3.61509371698946       -1.27677859147370        0.14289563209629
P            2.72628439031496        0.05912390054897        0.03334853041772
S            3.58946070704591        1.66136098561671       -0.65464860594541
O            2.23558431583410        0.27269659277971        1.54433603879182
C            1.20680862719706       -0.52679264901601        2.23274316334611
C            1.62284963208018       -1.95651805554971        2.47107605302288
S            1.07637683693102       -0.66370186766906       -1.09993347655817
C            0.25454642464100        0.91537540412978       -1.55788669708072
S           -0.62585124189714        1.82318229159994       -0.23384651009213
P           -2.42697631553584        0.68853009568627       -0.11526217564371
S           -3.23446098843850        0.19943817843611       -1.81896144618121
O           -3.17607548983626        1.74112899924314        0.83343798209599
C           -4.64254497757265        1.76744720782410        0.97646508755392
C           -5.14995964157444        0.62949608278917        1.82589369360097
O           -2.16381595249675       -0.53633612425339        0.89760206616864
C           -2.00271103171793       -1.93410613801422        0.47351016885157
C           -3.23602762195036       -2.71980982120456        0.83960074746720
H            3.63152482861423       -2.97665588165606       -1.96065202825809
H            3.75318649315345       -1.34636293193198       -2.67014964188287
H            5.16430696329515       -2.41771094807179       -2.65868030492911
H            5.34062435255675       -0.66315663397130       -0.86216713962137
H            5.31702915819949       -2.31641792259128       -0.20232264883031
H            1.07077291697721        0.01040841951807        3.17332921766818
H            0.28373386395959       -0.45736874564975        1.65192151227257
H            1.68364861782937       -2.52980730650228        1.54216151163182
H            2.58665265905033       -2.00676869388013        2.98596971601873
H            0.86796230251955       -2.42614717990383        3.11058653518968
H           -0.44865969847373        0.66642644669984       -2.35966487733932
H            1.00828672226465        1.60718141160008       -1.94486243816557
H           -4.83082365512671        2.73533653204120        1.44437129214174
H           -5.08275678563575        1.76418320721493       -0.02531414188458
H           -4.64693387469043        0.61063007455275        2.79694487220015
H           -6.22159184053984        0.77747744999472        1.99528038428571
H           -5.01405969542922       -0.33683377782509        1.33296108797281
H           -1.80855910391016       -1.96829397366329       -0.60172492581888
H           -1.11777171887004       -2.29059775988962        1.00688580494995
H           -3.06625912159428       -3.77347733972208        0.59440853701308
H           -3.44586402761161       -2.64530122221014        1.91051651378609
H           -4.10648665090454       -2.37050151673245        0.27721537453512
