 xtb: 6.7.1 (edcfbbe)
          04092505213D

 41 40  0     0  0            999 V2000
    0.6338   -2.7298    1.7388 C   0  0  0  0  0  0  0  0  0  0  0  0
    1.7559   -2.2916    0.8209 C   0  0  0  0  0  0  0  0  0  0  0  0
    1.8850   -0.8548    0.9061 O   0  0  0  0  0  0  0  0  0  0  0  0
    2.4557    0.0677   -0.2672 P   0  0  0  0  0  0  0  0  0  0  0  0
    3.1653   -0.8800   -1.8202 S   0  0  0  0  0  0  0  0  0  0  0  0
    3.5572    0.9441    0.4499 O   0  0  0  0  0  0  0  0  0  0  0  0
    3.4153    1.5440    1.7632 C   0  0  0  0  0  0  0  0  0  0  0  0
    2.8782    2.9577    1.6699 C   0  0  0  0  0  0  0  0  0  0  0  0
    0.8983    1.4556   -0.6818 S   0  0  0  0  0  0  0  0  0  0  0  0
    0.0748    0.4878   -1.9696 C   0  0  0  0  0  0  0  0  0  0  0  0
   -0.6644   -1.0354   -1.3364 S   0  0  0  0  0  0  0  0  0  0  0  0
   -2.0433   -0.0833   -0.0273 P   0  0  0  0  0  0  0  0  0  0  0  0
   -2.8735    1.5620   -0.7093 S   0  0  0  0  0  0  0  0  0  0  0  0
   -1.2143    0.0974    1.3097 O   0  0  0  0  0  0  0  0  0  0  0  0
   -1.2991    1.2708    2.1363 C   0  0  0  0  0  0  0  0  0  0  0  0
   -2.5315    1.2177    3.0146 C   0  0  0  0  0  0  0  0  0  0  0  0
   -2.9904   -1.2741    0.4198 O   0  0  0  0  0  0  0  0  0  0  0  0
   -3.6617   -2.1919   -0.4623 C   0  0  0  0  0  0  0  0  0  0  0  0
   -4.4935   -1.4930   -1.5179 C   0  0  0  0  0  0  0  0  0  0  0  0
   -0.3057   -2.2764    1.4323 H   0  0  0  0  0  0  0  0  0  0  0  0
    0.5418   -3.8097    1.6889 H   0  0  0  0  0  0  0  0  0  0  0  0
    0.8479   -2.4321    2.7610 H   0  0  0  0  0  0  0  0  0  0  0  0
    1.5606   -2.5733   -0.2180 H   0  0  0  0  0  0  0  0  0  0  0  0
    2.7116   -2.7240    1.1278 H   0  0  0  0  0  0  0  0  0  0  0  0
    2.7698    0.9088    2.3727 H   0  0  0  0  0  0  0  0  0  0  0  0
    4.4305    1.5339    2.1637 H   0  0  0  0  0  0  0  0  0  0  0  0
    2.8803    3.4030    2.6599 H   0  0  0  0  0  0  0  0  0  0  0  0
    3.5041    3.5509    1.0089 H   0  0  0  0  0  0  0  0  0  0  0  0
    1.8622    2.9609    1.2800 H   0  0  0  0  0  0  0  0  0  0  0  0
    0.8025    0.1937   -2.7259 H   0  0  0  0  0  0  0  0  0  0  0  0
   -0.7031    1.1276   -2.3863 H   0  0  0  0  0  0  0  0  0  0  0  0
   -0.3790    1.2563    2.7222 H   0  0  0  0  0  0  0  0  0  0  0  0
   -1.3146    2.1587    1.4953 H   0  0  0  0  0  0  0  0  0  0  0  0
   -2.5528    2.0879    3.6628 H   0  0  0  0  0  0  0  0  0  0  0  0
   -3.4236    1.2173    2.3892 H   0  0  0  0  0  0  0  0  0  0  0  0
   -2.5262    0.3136    3.6170 H   0  0  0  0  0  0  0  0  0  0  0  0
   -2.9070   -2.8329   -0.9269 H   0  0  0  0  0  0  0  0  0  0  0  0
   -4.2858   -2.7826    0.2107 H   0  0  0  0  0  0  0  0  0  0  0  0
   -3.8499   -0.9331   -2.1952 H   0  0  0  0  0  0  0  0  0  0  0  0
   -5.0470   -2.2320   -2.0883 H   0  0  0  0  0  0  0  0  0  0  0  0
   -5.1913   -0.7997   -1.0545 H   0  0  0  0  0  0  0  0  0  0  0  0
  1  2  1  0  0  0  0
  2  3  1  0  0  0  0
  3  4  2  0  0  0  0
  4  5  2  0  0  0  0
  4  6  2  0  0  0  0
  6  7  1  0  0  0  0
  7  8  1  0  0  0  0
  4  9  1  0  0  0  0
  9 10  1  0  0  0  0
 10 11  1  0  0  0  0
 11 12  1  0  0  0  0
 12 13  2  0  0  0  0
 12 14  2  0  0  0  0
 14 15  1  0  0  0  0
 15 16  1  0  0  0  0
 12 17  2  0  0  0  0
 17 18  1  0  0  0  0
 18 19  1  0  0  0  0
  1 20  1  0  0  0  0
  1 21  1  0  0  0  0
  1 22  1  0  0  0  0
  2 23  1  0  0  0  0
  2 24  1  0  0  0  0
  7 25  1  0  0  0  0
  7 26  1  0  0  0  0
  8 27  1  0  0  0  0
  8 28  1  0  0  0  0
  8 29  1  0  0  0  0
 10 30  1  0  0  0  0
 10 31  1  0  0  0  0
 15 32  1  0  0  0  0
 15 33  1  0  0  0  0
 16 34  1  0  0  0  0
 16 35  1  0  0  0  0
 16 36  1  0  0  0  0
 18 37  1  0  0  0  0
 18 38  1  0  0  0  0
 19 39  1  0  0  0  0
 19 40  1  0  0  0  0
 19 41  1  0  0  0  0
M  END
