 xtb: 6.7.1 (edcfbbe)
          04092505203D

 41 40  0     0  0            999 V2000
    5.7982   -0.4078    0.1715 C   0  0  0  0  0  0  0  0  0  0  0  0
    4.4403   -0.8105   -0.3672 C   0  0  0  0  0  0  0  0  0  0  0  0
    3.4436   -0.0051    0.2918 O   0  0  0  0  0  0  0  0  0  0  0  0
    1.9796    0.1630   -0.3056 P   0  0  0  0  0  0  0  0  0  0  0  0
    1.9357    0.5891   -2.2223 S   0  0  0  0  0  0  0  0  0  0  0  0
    1.3575    1.1966    0.7160 O   0  0  0  0  0  0  0  0  0  0  0  0
    1.4314    2.6215    0.5141 C   0  0  0  0  0  0  0  0  0  0  0  0
    2.8555    3.1289    0.5739 C   0  0  0  0  0  0  0  0  0  0  0  0
    1.0806   -1.6447    0.2795 S   0  0  0  0  0  0  0  0  0  0  0  0
   -0.1986   -1.8495   -1.0112 C   0  0  0  0  0  0  0  0  0  0  0  0
   -1.8663   -1.9393   -0.3296 S   0  0  0  0  0  0  0  0  0  0  0  0
   -2.0611    0.1004    0.2367 P   0  0  0  0  0  0  0  0  0  0  0  0
   -1.3995    1.4124   -1.0593 S   0  0  0  0  0  0  0  0  0  0  0  0
   -1.3467    0.2578    1.6325 O   0  0  0  0  0  0  0  0  0  0  0  0
   -1.3535   -0.6906    2.7299 C   0  0  0  0  0  0  0  0  0  0  0  0
   -2.7475   -1.0881    3.1614 C   0  0  0  0  0  0  0  0  0  0  0  0
   -3.5977    0.2637    0.6010 O   0  0  0  0  0  0  0  0  0  0  0  0
   -4.5980    0.6019   -0.3750 C   0  0  0  0  0  0  0  0  0  0  0  0
   -4.8115   -0.5029   -1.3894 C   0  0  0  0  0  0  0  0  0  0  0  0
    5.9980    0.6356   -0.0556 H   0  0  0  0  0  0  0  0  0  0  0  0
    5.8236   -0.5451    1.2485 H   0  0  0  0  0  0  0  0  0  0  0  0
    6.5608   -1.0267   -0.2894 H   0  0  0  0  0  0  0  0  0  0  0  0
    4.2230   -1.8611   -0.1560 H   0  0  0  0  0  0  0  0  0  0  0  0
    4.3672   -0.6398   -1.4468 H   0  0  0  0  0  0  0  0  0  0  0  0
    0.9692    2.8582   -0.4504 H   0  0  0  0  0  0  0  0  0  0  0  0
    0.8145    3.0267    1.3179 H   0  0  0  0  0  0  0  0  0  0  0  0
    3.4223    2.7328   -0.2680 H   0  0  0  0  0  0  0  0  0  0  0  0
    2.8516    4.2130    0.5180 H   0  0  0  0  0  0  0  0  0  0  0  0
    3.3281    2.8113    1.4997 H   0  0  0  0  0  0  0  0  0  0  0  0
   -0.0212   -2.7987   -1.5097 H   0  0  0  0  0  0  0  0  0  0  0  0
   -0.1206   -1.0138   -1.7123 H   0  0  0  0  0  0  0  0  0  0  0  0
   -0.7716   -1.5664    2.4276 H   0  0  0  0  0  0  0  0  0  0  0  0
   -0.8215   -0.1548    3.5176 H   0  0  0  0  0  0  0  0  0  0  0  0
   -3.3398   -0.2051    3.3864 H   0  0  0  0  0  0  0  0  0  0  0  0
   -3.2408   -1.6527    2.3730 H   0  0  0  0  0  0  0  0  0  0  0  0
   -2.6752   -1.7093    4.0490 H   0  0  0  0  0  0  0  0  0  0  0  0
   -5.4929    0.7778    0.2235 H   0  0  0  0  0  0  0  0  0  0  0  0
   -4.2957    1.5284   -0.8736 H   0  0  0  0  0  0  0  0  0  0  0  0
   -4.9896   -1.4503   -0.8875 H   0  0  0  0  0  0  0  0  0  0  0  0
   -5.6668   -0.2568   -2.0106 H   0  0  0  0  0  0  0  0  0  0  0  0
   -3.9331   -0.6008   -2.0253 H   0  0  0  0  0  0  0  0  0  0  0  0
  1  2  1  0  0  0  0
  2  3  1  0  0  0  0
  3  4  2  0  0  0  0
  4  5  2  0  0  0  0
  4  6  2  0  0  0  0
  6  7  1  0  0  0  0
  7  8  1  0  0  0  0
  4  9  1  0  0  0  0
  9 10  1  0  0  0  0
 10 11  1  0  0  0  0
 11 12  1  0  0  0  0
 12 13  2  0  0  0  0
 12 14  2  0  0  0  0
 14 15  1  0  0  0  0
 15 16  1  0  0  0  0
 12 17  2  0  0  0  0
 17 18  1  0  0  0  0
 18 19  1  0  0  0  0
  1 20  1  0  0  0  0
  1 21  1  0  0  0  0
  1 22  1  0  0  0  0
  2 23  1  0  0  0  0
  2 24  1  0  0  0  0
  7 25  1  0  0  0  0
  7 26  1  0  0  0  0
  8 27  1  0  0  0  0
  8 28  1  0  0  0  0
  8 29  1  0  0  0  0
 10 30  1  0  0  0  0
 10 31  1  0  0  0  0
 15 32  1  0  0  0  0
 15 33  1  0  0  0  0
 16 34  1  0  0  0  0
 16 35  1  0  0  0  0
 16 36  1  0  0  0  0
 18 37  1  0  0  0  0
 18 38  1  0  0  0  0
 19 39  1  0  0  0  0
 19 40  1  0  0  0  0
 19 41  1  0  0  0  0
M  END
