19
 xtb: 6.7.1 (edcfbbe)
C           -2.60321993366058        1.41116267656157       -0.00000639733529
C           -1.61658403306982        0.29199024834928       -0.00003325518388
C           -1.88221231833794       -1.05589181901454       -0.00004530221299
N           -0.70100673399043       -1.77387476827590        0.00007867335364
C            0.35651320368742       -0.89818577408639       -0.00002821899281
C           -0.18622494317737        0.41811040434100       -0.00002426758573
C            0.68908600344329        1.51424219588133        0.00002293991803
C            2.05758766123514        1.28005097163057        0.00001970242647
C            2.57144529142939       -0.03143677923921       -0.00001898819277
C            1.73036247319231       -1.13727493489899       -0.00003193127763
H           -3.62765124130919        1.02905272562347        0.00044130583523
H           -2.48216789755433        2.05282021733189        0.88075920428356
H           -2.48277299075783        2.05235396251474       -0.88119724999952
H           -2.83405728420522       -1.56959384026412       -0.00004914162154
H           -0.63105025982469       -2.77917320071440       -0.00064339537840
H            0.30045795324939        2.52888168685227        0.00005613467637
H            2.74732793152332        2.11852521006844        0.00004751173248
H            3.64673094807423       -0.18124150341966       -0.00002711640450
H            2.12540569895435       -2.14855588929675       -0.00004175423867
