 xtb: 6.7.1 (edcfbbe)
          04092505203D

 41 40  0     0  0            999 V2000
    1.0238   -3.1930    1.0560 C   0  0  0  0  0  0  0  0  0  0  0  0
    1.9205   -2.1677    1.7208 C   0  0  0  0  0  0  0  0  0  0  0  0
    1.5309   -0.8330    1.3174 O   0  0  0  0  0  0  0  0  0  0  0  0
    2.3804    0.0157    0.2828 P   0  0  0  0  0  0  0  0  0  0  0  0
    3.1695   -0.9612   -1.2287 S   0  0  0  0  0  0  0  0  0  0  0  0
    3.4492    0.6842    1.2526 O   0  0  0  0  0  0  0  0  0  0  0  0
    4.6442    1.3188    0.7660 C   0  0  0  0  0  0  0  0  0  0  0  0
    4.3409    2.5959    0.0093 C   0  0  0  0  0  0  0  0  0  0  0  0
    0.9864    1.5375   -0.1481 S   0  0  0  0  0  0  0  0  0  0  0  0
    0.2309    0.7112   -1.5777 C   0  0  0  0  0  0  0  0  0  0  0  0
   -0.7102   -0.7618   -1.1282 S   0  0  0  0  0  0  0  0  0  0  0  0
   -2.5270    0.1978   -0.5099 P   0  0  0  0  0  0  0  0  0  0  0  0
   -2.7405    2.0650   -1.0473 S   0  0  0  0  0  0  0  0  0  0  0  0
   -2.6589   -0.1671    1.0368 O   0  0  0  0  0  0  0  0  0  0  0  0
   -1.7301    0.2017    2.0695 C   0  0  0  0  0  0  0  0  0  0  0  0
   -1.7769    1.6815    2.3922 C   0  0  0  0  0  0  0  0  0  0  0  0
   -3.6692   -0.6795   -1.1400 O   0  0  0  0  0  0  0  0  0  0  0  0
   -3.7598   -2.1194   -0.9962 C   0  0  0  0  0  0  0  0  0  0  0  0
   -4.7004   -2.4920    0.1315 C   0  0  0  0  0  0  0  0  0  0  0  0
    1.2926   -4.1845    1.4054 H   0  0  0  0  0  0  0  0  0  0  0  0
   -0.0166   -2.9944    1.2969 H   0  0  0  0  0  0  0  0  0  0  0  0
    1.1435   -3.1497   -0.0246 H   0  0  0  0  0  0  0  0  0  0  0  0
    2.9680   -2.3337    1.4544 H   0  0  0  0  0  0  0  0  0  0  0  0
    1.8119   -2.1794    2.8064 H   0  0  0  0  0  0  0  0  0  0  0  0
    5.2246    1.5125    1.6689 H   0  0  0  0  0  0  0  0  0  0  0  0
    5.1763    0.6087    0.1246 H   0  0  0  0  0  0  0  0  0  0  0  0
    3.7185    3.2534    0.6112 H   0  0  0  0  0  0  0  0  0  0  0  0
    5.2706    3.1004   -0.2333 H   0  0  0  0  0  0  0  0  0  0  0  0
    3.8137    2.3651   -0.9158 H   0  0  0  0  0  0  0  0  0  0  0  0
    1.0143    0.3840   -2.2606 H   0  0  0  0  0  0  0  0  0  0  0  0
   -0.4330    1.4415   -2.0415 H   0  0  0  0  0  0  0  0  0  0  0  0
   -2.0467   -0.3971    2.9261 H   0  0  0  0  0  0  0  0  0  0  0  0
   -0.7219   -0.0985    1.7685 H   0  0  0  0  0  0  0  0  0  0  0  0
   -1.4285    2.2698    1.5454 H   0  0  0  0  0  0  0  0  0  0  0  0
   -2.7944    1.9827    2.6282 H   0  0  0  0  0  0  0  0  0  0  0  0
   -1.1344    1.8807    3.2439 H   0  0  0  0  0  0  0  0  0  0  0  0
   -4.1395   -2.4638   -1.9598 H   0  0  0  0  0  0  0  0  0  0  0  0
   -2.7567   -2.5231   -0.8329 H   0  0  0  0  0  0  0  0  0  0  0  0
   -4.7945   -3.5727    0.1723 H   0  0  0  0  0  0  0  0  0  0  0  0
   -4.3183   -2.1269    1.0806 H   0  0  0  0  0  0  0  0  0  0  0  0
   -5.6787   -2.0526   -0.0424 H   0  0  0  0  0  0  0  0  0  0  0  0
  1  2  1  0  0  0  0
  2  3  1  0  0  0  0
  3  4  2  0  0  0  0
  4  5  2  0  0  0  0
  4  6  2  0  0  0  0
  6  7  1  0  0  0  0
  7  8  1  0  0  0  0
  4  9  1  0  0  0  0
  9 10  1  0  0  0  0
 10 11  1  0  0  0  0
 11 12  1  0  0  0  0
 12 13  2  0  0  0  0
 12 14  2  0  0  0  0
 14 15  1  0  0  0  0
 15 16  1  0  0  0  0
 12 17  2  0  0  0  0
 17 18  1  0  0  0  0
 18 19  1  0  0  0  0
  1 20  1  0  0  0  0
  1 21  1  0  0  0  0
  1 22  1  0  0  0  0
  2 23  1  0  0  0  0
  2 24  1  0  0  0  0
  7 25  1  0  0  0  0
  7 26  1  0  0  0  0
  8 27  1  0  0  0  0
  8 28  1  0  0  0  0
  8 29  1  0  0  0  0
 10 30  1  0  0  0  0
 10 31  1  0  0  0  0
 15 32  1  0  0  0  0
 15 33  1  0  0  0  0
 16 34  1  0  0  0  0
 16 35  1  0  0  0  0
 16 36  1  0  0  0  0
 18 37  1  0  0  0  0
 18 38  1  0  0  0  0
 19 39  1  0  0  0  0
 19 40  1  0  0  0  0
 19 41  1  0  0  0  0
M  END
