 xtb: 6.7.1 (edcfbbe)
          04092513573D

 41 40  0     0  0            999 V2000
    0.8779   -1.8788    2.9984 C   0  0  0  0  0  0  0  0  0  0  0  0
    2.1206   -1.1933    2.4692 C   0  0  0  0  0  0  0  0  0  0  0  0
    1.7247   -0.2097    1.4796 O   0  0  0  0  0  0  0  0  0  0  0  0
    2.4689   -0.0345    0.0980 P   0  0  0  0  0  0  0  0  0  0  0  0
    3.2006   -1.6671   -0.7125 S   0  0  0  0  0  0  0  0  0  0  0  0
    3.5496    1.0729    0.4579 O   0  0  0  0  0  0  0  0  0  0  0  0
    4.5895    1.4714   -0.4586 C   0  0  0  0  0  0  0  0  0  0  0  0
    5.7523    2.0069    0.3533 C   0  0  0  0  0  0  0  0  0  0  0  0
    1.0241    1.0123   -1.0328 S   0  0  0  0  0  0  0  0  0  0  0  0
    0.1456   -0.4502   -1.6545 C   0  0  0  0  0  0  0  0  0  0  0  0
   -0.9644   -1.1751   -0.4297 S   0  0  0  0  0  0  0  0  0  0  0  0
   -2.4545    0.3554   -0.5118 P   0  0  0  0  0  0  0  0  0  0  0  0
   -2.7366    1.1445   -2.2805 S   0  0  0  0  0  0  0  0  0  0  0  0
   -2.0742    1.4500    0.5502 O   0  0  0  0  0  0  0  0  0  0  0  0
   -1.4947    1.2349    1.8602 C   0  0  0  0  0  0  0  0  0  0  0  0
   -2.3565    0.3630    2.7474 C   0  0  0  0  0  0  0  0  0  0  0  0
   -3.7315   -0.3422    0.1212 O   0  0  0  0  0  0  0  0  0  0  0  0
   -4.5098   -1.3073   -0.6159 C   0  0  0  0  0  0  0  0  0  0  0  0
   -5.8653   -1.4213    0.0525 C   0  0  0  0  0  0  0  0  0  0  0  0
    0.2118   -1.1500    3.4499 H   0  0  0  0  0  0  0  0  0  0  0  0
    0.3552   -2.3821    2.1884 H   0  0  0  0  0  0  0  0  0  0  0  0
    1.1690   -2.6102    3.7454 H   0  0  0  0  0  0  0  0  0  0  0  0
    2.7997   -1.9122    1.9993 H   0  0  0  0  0  0  0  0  0  0  0  0
    2.6503   -0.6527    3.2557 H   0  0  0  0  0  0  0  0  0  0  0  0
    4.8853    0.6014   -1.0544 H   0  0  0  0  0  0  0  0  0  0  0  0
    4.1788    2.2377   -1.1209 H   0  0  0  0  0  0  0  0  0  0  0  0
    6.5283    2.3514   -0.3225 H   0  0  0  0  0  0  0  0  0  0  0  0
    5.4212    2.8352    0.9729 H   0  0  0  0  0  0  0  0  0  0  0  0
    6.1549    1.2263    0.9926 H   0  0  0  0  0  0  0  0  0  0  0  0
    0.8705   -1.2170   -1.9297 H   0  0  0  0  0  0  0  0  0  0  0  0
   -0.4374   -0.1205   -2.5155 H   0  0  0  0  0  0  0  0  0  0  0  0
   -0.4992    0.8017    1.7277 H   0  0  0  0  0  0  0  0  0  0  0  0
   -1.4008    2.2476    2.2555 H   0  0  0  0  0  0  0  0  0  0  0  0
   -2.3859   -0.6554    2.3661 H   0  0  0  0  0  0  0  0  0  0  0  0
   -1.9393    0.3571    3.7501 H   0  0  0  0  0  0  0  0  0  0  0  0
   -3.3696    0.7546    2.7855 H   0  0  0  0  0  0  0  0  0  0  0  0
   -4.6011   -0.9662   -1.6526 H   0  0  0  0  0  0  0  0  0  0  0  0
   -3.9742   -2.2602   -0.5982 H   0  0  0  0  0  0  0  0  0  0  0  0
   -6.3785   -0.4642    0.0232 H   0  0  0  0  0  0  0  0  0  0  0  0
   -6.4596   -2.1614   -0.4734 H   0  0  0  0  0  0  0  0  0  0  0  0
   -5.7458   -1.7261    1.0879 H   0  0  0  0  0  0  0  0  0  0  0  0
  1  2  1  0  0  0  0
  2  3  1  0  0  0  0
  3  4  2  0  0  0  0
  4  5  2  0  0  0  0
  4  6  2  0  0  0  0
  6  7  1  0  0  0  0
  7  8  1  0  0  0  0
  4  9  1  0  0  0  0
  9 10  1  0  0  0  0
 10 11  1  0  0  0  0
 11 12  1  0  0  0  0
 12 13  2  0  0  0  0
 12 14  2  0  0  0  0
 14 15  1  0  0  0  0
 15 16  1  0  0  0  0
 12 17  2  0  0  0  0
 17 18  1  0  0  0  0
 18 19  1  0  0  0  0
  1 20  1  0  0  0  0
  1 21  1  0  0  0  0
  1 22  1  0  0  0  0
  2 23  1  0  0  0  0
  2 24  1  0  0  0  0
  7 25  1  0  0  0  0
  7 26  1  0  0  0  0
  8 27  1  0  0  0  0
  8 28  1  0  0  0  0
  8 29  1  0  0  0  0
 10 30  1  0  0  0  0
 10 31  1  0  0  0  0
 15 32  1  0  0  0  0
 15 33  1  0  0  0  0
 16 34  1  0  0  0  0
 16 35  1  0  0  0  0
 16 36  1  0  0  0  0
 18 37  1  0  0  0  0
 18 38  1  0  0  0  0
 19 39  1  0  0  0  0
 19 40  1  0  0  0  0
 19 41  1  0  0  0  0
M  END
