  25
 
 C          1.8101799579        1.4829662866       -0.1109360481
 C          0.7414375839        0.7795748621        0.7344681646
 H          0.8625294905        1.1391077561        1.7590495166
 C          0.7412158618       -0.7793114067        0.7348827335
 H          0.8621696968       -1.1383291844        1.7596574377
 C          1.8097976858       -1.4834509311       -0.1100990948
 O          3.0966204862       -1.2753331723        0.4376323287
 S          3.9560765955       -0.0005384098       -0.2031212046
 O          5.1920129226       -0.0004982262        0.5262942083
 O          3.0969638496        1.2748696755        0.4368955910
 C         -0.6970540588       -1.1164665895        0.2572573826
 C         -0.8162832055       -0.6707565272       -1.1882080061
 C         -0.8161078691        0.6704862563       -1.1885478534
 C         -0.6967496691        1.1168929085        0.2566956827
 C         -1.5162071804        0.0004958379        0.9422036145
 Cl        -3.2257695675        0.0006102136        0.4722752340
 Cl        -1.4321893732        0.0009325016        2.7001859996
 Cl        -1.2151543171        2.7616459457        0.5791041206
 Cl        -0.8678126288        1.7401726804       -2.4959152970
 Cl        -0.8682719792       -1.7410784971       -2.4950314675
 Cl        -1.2159114801       -2.7609141452        0.5804815799
 H          1.6246726517        2.5596264753       -0.0811568431
 H          1.7861111005        1.1464689097       -1.1506632052
 H          1.6240437938       -2.5600531110       -0.0796947053
 H          1.7858198292       -1.1475603830       -1.1500283683
          25
        -65.14164217
 C          1.5863857410        1.5184788126        1.3386137124
 C          0.2483896948        0.7794815302        1.4378699777
 H         -0.2191117569        1.1351997287        2.3592517556
 C          0.2485236333       -0.7794776090        1.4377283513
 H         -0.2191780956       -1.1354209721        2.3589175595
 C          1.5866791126       -1.5182607716        1.3385296200
 O          2.3073345177       -1.2543988356        0.1581208302
 S          3.3993560166        0.0004269248        0.1989126445
 O          3.9319115656        0.0000538674        1.5474157245
 O          2.3073593506        1.2540726295        0.1582204073
 C         -0.7109588764       -1.1153649911        0.2610839520
 C         -0.0688145424       -0.6701150295       -1.0384084103
 C         -0.0692603478        0.6706124660       -1.0383022837
 C         -0.7113872695        1.1152325058        0.2614075840
 C         -1.7720859705       -0.0002754604        0.4112799935
 Cl        -2.9784943517       -0.0004088954       -0.8904341841
 Cl        -2.6305890372       -0.0005960954        1.9441569525
 Cl        -1.3182294396        2.7596961018        0.2668914689
 Cl         0.5027816466        1.7347170083       -2.2187462360
 Cl         0.5038540896       -1.7336788463       -2.2191492433
 Cl        -1.3171612783       -2.7601160711        0.2660722833
 H          2.2128655887        1.2570363610        2.2001472862
 H          1.3920704773        2.5938154682        1.3545936749
 H          2.2130975029       -1.2563214714        2.2000022412
 H          1.3925596831       -2.5936718155        1.3552856191
