 xtb: 6.7.1 (edcfbbe)
          04032519393D

  8  7  0     0  0            999 V2000
   -0.4616   -0.5975   -0.0000 C   0  0  0  0  0  0  0  0  0  0  0  0
    0.4614    0.5971   -0.0000 C   0  0  0  0  0  0  0  0  0  0  0  0
    2.3244   -0.0222    0.0000 Br  0  0  0  0  0  0  0  0  0  0  0  0
   -2.3244    0.0223    0.0000 Br  0  0  0  0  0  0  0  0  0  0  0  0
   -0.3369   -1.2094    0.8930 H   0  0  0  0  0  0  0  0  0  0  0  0
   -0.3370   -1.2094   -0.8929 H   0  0  0  0  0  0  0  0  0  0  0  0
    0.3365    1.2090   -0.8929 H   0  0  0  0  0  0  0  0  0  0  0  0
    0.3366    1.2091    0.8928 H   0  0  0  0  0  0  0  0  0  0  0  0
  1  2  1  0  0  0  0
  2  3  1  0  0  0  0
  1  4  1  0  0  0  0
  1  5  1  0  0  0  0
  1  6  1  0  0  0  0
  2  7  1  0  0  0  0
  2  8  1  0  0  0  0
M  END
