12
 xtb: 6.7.1 (edcfbbe)
C           -0.69569470170914       -1.21410096826785       -0.00000773346896
C            0.69569873473596       -1.21410218788722       -0.00000465709181
C            1.37138458973334        0.00000027406261        0.00000043856845
C            0.69570101772586        1.21410389843596        0.00000007561244
C           -0.69569233010778        1.21410552366085       -0.00000299224251
C           -1.37137819382285        0.00000293125340       -0.00000567274079
Cl          -3.13031818554920        0.00000468120715       -0.00001006957606
Cl           3.13032442894747       -0.00000133337108        0.00000659274803
H           -1.23725873428824       -2.15305828010127       -0.00001073904574
H            1.23726094883430       -2.15306059119140       -0.00000527625101
H            1.23726475728280        2.15306106201811        0.00000337403805
H           -1.23725455595797        2.15306398568479       -0.00000276382662
