 xtb: 6.7.1 (edcfbbe)
          04092505213D

 41 40  0     0  0            999 V2000
   -0.1902    2.6028    2.4403 C   0  0  0  0  0  0  0  0  0  0  0  0
    0.7033    1.3819    2.5068 C   0  0  0  0  0  0  0  0  0  0  0  0
    1.0301    1.0002    1.1547 O   0  0  0  0  0  0  0  0  0  0  0  0
    1.6393   -0.4184    0.8228 P   0  0  0  0  0  0  0  0  0  0  0  0
    0.8917   -1.9812    1.7541 S   0  0  0  0  0  0  0  0  0  0  0  0
    3.1677   -0.1523    1.2023 O   0  0  0  0  0  0  0  0  0  0  0  0
    4.1209   -1.2098    1.3947 C   0  0  0  0  0  0  0  0  0  0  0  0
    4.4225   -1.9555    0.1106 C   0  0  0  0  0  0  0  0  0  0  0  0
    1.6153   -0.4127   -1.2796 S   0  0  0  0  0  0  0  0  0  0  0  0
    0.3629   -1.6942   -1.5802 C   0  0  0  0  0  0  0  0  0  0  0  0
   -1.1863   -1.1007   -2.3370 S   0  0  0  0  0  0  0  0  0  0  0  0
   -1.8453    0.3227   -0.9071 P   0  0  0  0  0  0  0  0  0  0  0  0
   -3.6926    0.9007   -1.1959 S   0  0  0  0  0  0  0  0  0  0  0  0
   -0.7641    1.4771   -0.9124 O   0  0  0  0  0  0  0  0  0  0  0  0
   -0.6277    2.3409   -2.0592 C   0  0  0  0  0  0  0  0  0  0  0  0
    0.3425    3.4427   -1.6870 C   0  0  0  0  0  0  0  0  0  0  0  0
   -1.4754   -0.2962    0.5075 O   0  0  0  0  0  0  0  0  0  0  0  0
   -2.4606   -1.0567    1.2425 C   0  0  0  0  0  0  0  0  0  0  0  0
   -3.1408   -0.1856    2.2784 C   0  0  0  0  0  0  0  0  0  0  0  0
   -0.4940    2.8827    3.4440 H   0  0  0  0  0  0  0  0  0  0  0  0
    0.3440    3.4286    1.9800 H   0  0  0  0  0  0  0  0  0  0  0  0
   -1.0717    2.3821    1.8430 H   0  0  0  0  0  0  0  0  0  0  0  0
    0.1988    0.5389    2.9922 H   0  0  0  0  0  0  0  0  0  0  0  0
    1.6350    1.5931    3.0389 H   0  0  0  0  0  0  0  0  0  0  0  0
    5.0039   -0.6983    1.7802 H   0  0  0  0  0  0  0  0  0  0  0  0
    3.7276   -1.8946    2.1531 H   0  0  0  0  0  0  0  0  0  0  0  0
    4.6990   -1.2580   -0.6760 H   0  0  0  0  0  0  0  0  0  0  0  0
    5.2401   -2.6480    0.2833 H   0  0  0  0  0  0  0  0  0  0  0  0
    3.5464   -2.5182   -0.2088 H   0  0  0  0  0  0  0  0  0  0  0  0
    0.1463   -2.1995   -0.6357 H   0  0  0  0  0  0  0  0  0  0  0  0
    0.7676   -2.3890   -2.3120 H   0  0  0  0  0  0  0  0  0  0  0  0
   -0.2509    1.7475   -2.8990 H   0  0  0  0  0  0  0  0  0  0  0  0
   -1.6158    2.7370   -2.3166 H   0  0  0  0  0  0  0  0  0  0  0  0
   -0.0607    4.0357   -0.8713 H   0  0  0  0  0  0  0  0  0  0  0  0
    1.2870    3.0062   -1.3728 H   0  0  0  0  0  0  0  0  0  0  0  0
    0.5071    4.0795   -2.5498 H   0  0  0  0  0  0  0  0  0  0  0  0
   -3.1940   -1.4687    0.5424 H   0  0  0  0  0  0  0  0  0  0  0  0
   -1.8995   -1.8704    1.7086 H   0  0  0  0  0  0  0  0  0  0  0  0
   -3.6802    0.6224    1.7879 H   0  0  0  0  0  0  0  0  0  0  0  0
   -3.8434   -0.7905    2.8424 H   0  0  0  0  0  0  0  0  0  0  0  0
   -2.4054    0.2377    2.9569 H   0  0  0  0  0  0  0  0  0  0  0  0
  1  2  1  0  0  0  0
  2  3  1  0  0  0  0
  3  4  2  0  0  0  0
  4  5  2  0  0  0  0
  4  6  2  0  0  0  0
  6  7  1  0  0  0  0
  7  8  1  0  0  0  0
  4  9  1  0  0  0  0
  9 10  1  0  0  0  0
 10 11  1  0  0  0  0
 11 12  1  0  0  0  0
 12 13  2  0  0  0  0
 12 14  2  0  0  0  0
 14 15  1  0  0  0  0
 15 16  1  0  0  0  0
 12 17  2  0  0  0  0
 17 18  1  0  0  0  0
 18 19  1  0  0  0  0
  1 20  1  0  0  0  0
  1 21  1  0  0  0  0
  1 22  1  0  0  0  0
  2 23  1  0  0  0  0
  2 24  1  0  0  0  0
  7 25  1  0  0  0  0
  7 26  1  0  0  0  0
  8 27  1  0  0  0  0
  8 28  1  0  0  0  0
  8 29  1  0  0  0  0
 10 30  1  0  0  0  0
 10 31  1  0  0  0  0
 15 32  1  0  0  0  0
 15 33  1  0  0  0  0
 16 34  1  0  0  0  0
 16 35  1  0  0  0  0
 16 36  1  0  0  0  0
 18 37  1  0  0  0  0
 18 38  1  0  0  0  0
 19 39  1  0  0  0  0
 19 40  1  0  0  0  0
 19 41  1  0  0  0  0
M  END
