 xtb: 6.7.1 (edcfbbe)
          04032519433D

  8  7  0     0  0            999 V2000
    0.6521    0.0002   -0.3881 C   0  0  0  0  0  0  0  0  0  0  0  0
   -0.6529    0.0002    0.3878 C   0  0  0  0  0  0  0  0  0  0  0  0
   -1.5920    1.4504   -0.0334 Cl  0  0  0  0  0  0  0  0  0  0  0  0
   -1.5914   -1.4503   -0.0333 Cl  0  0  0  0  0  0  0  0  0  0  0  0
    1.5923    1.4494    0.0335 Cl  0  0  0  0  0  0  0  0  0  0  0  0
    1.5914   -1.4496    0.0333 Cl  0  0  0  0  0  0  0  0  0  0  0  0
    0.4903    0.0002   -1.4681 H   0  0  0  0  0  0  0  0  0  0  0  0
   -0.4906    0.0004    1.4678 H   0  0  0  0  0  0  0  0  0  0  0  0
  1  2  1  0  0  0  0
  2  3  1  0  0  0  0
  2  4  1  0  0  0  0
  1  5  1  0  0  0  0
  1  6  1  0  0  0  0
  1  7  1  0  0  0  0
  2  8  1  0  0  0  0
M  END
