 xtb: 6.7.1 (edcfbbe)
          04032519403D

 19 19  0     0  0            999 V2000
   -2.5604    0.6023   -0.0036 C   0  0  0  0  0  0  0  0  0  0  0  0
   -1.2168   -0.0621   -0.0003 C   0  0  0  0  0  0  0  0  0  0  0  0
   -1.1358   -1.4471   -0.0001 C   0  0  0  0  0  0  0  0  0  0  0  0
    0.0923   -2.0827    0.0024 C   0  0  0  0  0  0  0  0  0  0  0  0
    1.2491   -1.3328    0.0017 C   0  0  0  0  0  0  0  0  0  0  0  0
    1.1847    0.0577   -0.0001 C   0  0  0  0  0  0  0  0  0  0  0  0
   -0.0506    0.7116    0.0022 C   0  0  0  0  0  0  0  0  0  0  0  0
   -0.1737    2.2099    0.0052 C   0  0  0  0  0  0  0  0  0  0  0  0
    2.3871    0.7061   -0.0048 O   0  0  0  0  0  0  0  0  0  0  0  0
   -2.6854    1.2229    0.8824 H   0  0  0  0  0  0  0  0  0  0  0  0
   -2.6709    1.2431   -0.8769 H   0  0  0  0  0  0  0  0  0  0  0  0
   -3.3516   -0.1419   -0.0180 H   0  0  0  0  0  0  0  0  0  0  0  0
   -2.0430   -2.0330   -0.0017 H   0  0  0  0  0  0  0  0  0  0  0  0
    0.1495   -3.1605    0.0035 H   0  0  0  0  0  0  0  0  0  0  0  0
    2.2236   -1.7959    0.0013 H   0  0  0  0  0  0  0  0  0  0  0  0
    0.7858    2.7181    0.0497 H   0  0  0  0  0  0  0  0  0  0  0  0
   -0.6888    2.5441   -0.8947 H   0  0  0  0  0  0  0  0  0  0  0  0
   -0.7605    2.5329    0.8638 H   0  0  0  0  0  0  0  0  0  0  0  0
    2.2643    1.6664   -0.0213 H   0  0  0  0  0  0  0  0  0  0  0  0
  1  2  1  0  0  0  0
  2  3  4  0  0  0  0
  3  4  4  0  0  0  0
  4  5  4  0  0  0  0
  5  6  4  0  0  0  0
  2  7  4  0  0  0  0
  6  7  4  0  0  0  0
  7  8  1  0  0  0  0
  6  9  1  0  0  0  0
  1 10  1  0  0  0  0
  1 11  1  0  0  0  0
  1 12  1  0  0  0  0
  3 13  1  0  0  0  0
  4 14  1  0  0  0  0
  5 15  1  0  0  0  0
  8 16  1  0  0  0  0
  8 17  1  0  0  0  0
  8 18  1  0  0  0  0
  9 19  1  0  0  0  0
M  END
