20
 xtb: 6.7.1 (edcfbbe)
C            0.61089962094813        1.69302329294350        0.01730833482296
C            1.38207102844967        0.40574063970296       -0.23363033612394
H            1.60346981182128        0.31254072669511       -1.30899932032090
C            0.53050780731265       -0.77886088433928        0.20359576042783
H            0.36807381001835       -0.72339539363039        1.28700508117773
C           -0.81141341722512       -0.73503962603465       -0.52290886815755
H           -0.63782946683149       -0.86527542286412       -1.60249239848147
C           -1.50170089902746        0.61900960634284       -0.32839679989051
H           -2.35944350919885        0.70824777730308       -1.00737227632635
O           -0.64145665666327        1.67782706233820       -0.69394476438468
O           -1.92955251786068        0.80018369639829        1.01529817576001
O           -1.70908122989350       -1.73662544383352       -0.03683195083391
O            1.19385008668120       -2.03040621726894       -0.02099918277128
O            2.59605176030418        0.48995241110848        0.51778935740742
H            1.16107237812513        2.55497653893847       -0.36613424570395
H            0.44473785931237        1.82594800513289        1.09405215776617
H           -2.06028646853197       -0.07834013801458        1.40277162477440
H           -1.21737013877058       -2.56949321911557       -0.00308804275918
H            1.35194694203492       -2.10984919580209       -0.97350754579251
H            3.06273692334131       -0.34880991374901        0.39940278711768
