 xtb: 6.7.1 (edcfbbe)
          04092509463D

 38 37  0     0  0            999 V2000
    3.5645   -4.0233   -0.8968 C   0  0  0  0  0  0  0  0  0  0  0  0
    4.1780   -2.7144   -1.3679 C   0  0  0  0  0  0  0  0  0  0  0  0
    3.1869   -1.8617   -1.9765 O   0  0  0  0  0  0  0  0  0  0  0  0
    2.4526   -1.0868   -1.2074 C   0  0  0  0  0  0  0  0  0  0  0  0
    2.5402   -1.0212    0.0013 O   0  0  0  0  0  0  0  0  0  0  0  0
    1.4919   -0.2474   -2.0247 C   0  0  0  0  0  0  0  0  0  0  0  0
    0.4437    0.3855   -1.1193 C   0  0  0  0  0  0  0  0  0  0  0  0
   -0.1634    1.1052   -1.6811 H   0  0  0  0  0  0  0  0  0  0  0  0
    1.1231    1.1554    0.0013 C   0  0  0  0  0  0  0  0  0  0  0  0
    2.0435    1.9107   -0.2175 O   0  0  0  0  0  0  0  0  0  0  0  0
    0.5718    0.9580    1.1806 O   0  0  0  0  0  0  0  0  0  0  0  0
    1.1198    1.6788    2.3042 C   0  0  0  0  0  0  0  0  0  0  0  0
    0.4536    3.0355    2.4572 C   0  0  0  0  0  0  0  0  0  0  0  0
   -0.6884   -0.8975   -0.4900 S   0  0  0  0  0  0  0  0  0  0  0  0
   -2.1913    0.3672    0.3194 P   0  0  0  0  0  0  0  0  0  0  0  0
   -2.3061    2.1735   -0.4225 S   0  0  0  0  0  0  0  0  0  0  0  0
   -3.5115   -0.5230    0.1327 O   0  0  0  0  0  0  0  0  0  0  0  0
   -4.1105   -0.7398   -1.1505 C   0  0  0  0  0  0  0  0  0  0  0  0
   -2.0807    0.3619    1.8947 O   0  0  0  0  0  0  0  0  0  0  0  0
   -1.8982   -0.8551    2.6423 C   0  0  0  0  0  0  0  0  0  0  0  0
    3.0808   -4.5313   -1.7263 H   0  0  0  0  0  0  0  0  0  0  0  0
    4.3468   -4.6589   -0.4946 H   0  0  0  0  0  0  0  0  0  0  0  0
    2.8284   -3.8332   -0.1192 H   0  0  0  0  0  0  0  0  0  0  0  0
    4.9093   -2.8812   -2.1591 H   0  0  0  0  0  0  0  0  0  0  0  0
    4.6359   -2.1768   -0.5329 H   0  0  0  0  0  0  0  0  0  0  0  0
    1.0322   -0.8618   -2.7973 H   0  0  0  0  0  0  0  0  0  0  0  0
    2.0751    0.5445   -2.5008 H   0  0  0  0  0  0  0  0  0  0  0  0
    0.9270    1.0385    3.1650 H   0  0  0  0  0  0  0  0  0  0  0  0
    2.1963    1.7863    2.1426 H   0  0  0  0  0  0  0  0  0  0  0  0
   -0.6222    2.9145    2.5627 H   0  0  0  0  0  0  0  0  0  0  0  0
    0.8493    3.5337    3.3360 H   0  0  0  0  0  0  0  0  0  0  0  0
    0.6497    3.6510    1.5816 H   0  0  0  0  0  0  0  0  0  0  0  0
   -4.2869    0.2148   -1.6481 H   0  0  0  0  0  0  0  0  0  0  0  0
   -5.0538   -1.2424   -0.9502 H   0  0  0  0  0  0  0  0  0  0  0  0
   -3.4647   -1.3673   -1.7642 H   0  0  0  0  0  0  0  0  0  0  0  0
   -0.9440   -1.3091    2.3741 H   0  0  0  0  0  0  0  0  0  0  0  0
   -2.7131   -1.5471    2.4386 H   0  0  0  0  0  0  0  0  0  0  0  0
   -1.9004   -0.5519    3.6859 H   0  0  0  0  0  0  0  0  0  0  0  0
  1  2  1  0  0  0  0
  2  3  1  0  0  0  0
  3  4  1  0  0  0  0
  4  5  2  0  0  0  0
  4  6  1  0  0  0  0
  6  7  1  0  0  0  0
  7  8  1  0  0  0  0
  7  9  1  0  0  0  0
  9 10  2  0  0  0  0
  9 11  1  0  0  0  0
 11 12  1  0  0  0  0
 12 13  1  0  0  0  0
  7 14  1  0  0  0  0
 14 15  1  0  0  0  0
 15 16  2  0  0  0  0
 15 17  1  0  0  0  0
 17 18  1  0  0  0  0
 15 19  2  0  0  0  0
 19 20  1  0  0  0  0
  1 21  1  0  0  0  0
  1 22  1  0  0  0  0
  1 23  1  0  0  0  0
  2 24  1  0  0  0  0
  2 25  1  0  0  0  0
  6 26  1  0  0  0  0
  6 27  1  0  0  0  0
 12 28  1  0  0  0  0
 12 29  1  0  0  0  0
 13 30  1  0  0  0  0
 13 31  1  0  0  0  0
 13 32  1  0  0  0  0
 18 33  1  0  0  0  0
 18 34  1  0  0  0  0
 18 35  1  0  0  0  0
 20 36  1  0  0  0  0
 20 37  1  0  0  0  0
 20 38  1  0  0  0  0
M  END
