 xtb: 6.7.1 (edcfbbe)
          04092507313D

 38 37  0     0  0            999 V2000
    2.2409   -2.8020    0.5649 C   0  0  0  0  0  0  0  0  0  0  0  0
    3.2809   -1.9286   -0.1194 C   0  0  0  0  0  0  0  0  0  0  0  0
    2.6629   -0.7523   -0.6761 O   0  0  0  0  0  0  0  0  0  0  0  0
    2.1019   -0.8456   -1.8732 C   0  0  0  0  0  0  0  0  0  0  0  0
    2.1658   -1.8212   -2.5828 O   0  0  0  0  0  0  0  0  0  0  0  0
    1.3665    0.4318   -2.2336 C   0  0  0  0  0  0  0  0  0  0  0  0
    0.2863    0.7194   -1.1920 C   0  0  0  0  0  0  0  0  0  0  0  0
   -0.2536    1.6357   -1.4477 H   0  0  0  0  0  0  0  0  0  0  0  0
    0.8731    0.8809    0.1996 C   0  0  0  0  0  0  0  0  0  0  0  0
    0.5260    0.2017    1.1457 O   0  0  0  0  0  0  0  0  0  0  0  0
    1.7507    1.8420    0.2484 O   0  0  0  0  0  0  0  0  0  0  0  0
    2.3673    2.1182    1.5234 C   0  0  0  0  0  0  0  0  0  0  0  0
    3.4643    3.1389    1.3001 C   0  0  0  0  0  0  0  0  0  0  0  0
   -0.9185   -0.6543   -1.1360 S   0  0  0  0  0  0  0  0  0  0  0  0
   -2.0672    0.0103    0.5268 P   0  0  0  0  0  0  0  0  0  0  0  0
   -2.0364    1.9279    0.9181 S   0  0  0  0  0  0  0  0  0  0  0  0
   -3.5272   -0.5018    0.0902 O   0  0  0  0  0  0  0  0  0  0  0  0
   -4.2398    0.1134   -0.9865 C   0  0  0  0  0  0  0  0  0  0  0  0
   -1.8453   -0.9263    1.7777 O   0  0  0  0  0  0  0  0  0  0  0  0
   -1.9193   -2.3622    1.6886 C   0  0  0  0  0  0  0  0  0  0  0  0
    1.6727   -2.2092    1.2796 H   0  0  0  0  0  0  0  0  0  0  0  0
    1.5562   -3.2124   -0.1747 H   0  0  0  0  0  0  0  0  0  0  0  0
    2.7341   -3.6167    1.0840 H   0  0  0  0  0  0  0  0  0  0  0  0
    3.7803   -2.4735   -0.9253 H   0  0  0  0  0  0  0  0  0  0  0  0
    4.0117   -1.5444    0.5924 H   0  0  0  0  0  0  0  0  0  0  0  0
    0.9176    0.3066   -3.2181 H   0  0  0  0  0  0  0  0  0  0  0  0
    2.0706    1.2650   -2.2409 H   0  0  0  0  0  0  0  0  0  0  0  0
    1.5906    2.4913    2.1986 H   0  0  0  0  0  0  0  0  0  0  0  0
    2.7545    1.1776    1.9259 H   0  0  0  0  0  0  0  0  0  0  0  0
    4.2153    2.7391    0.6256 H   0  0  0  0  0  0  0  0  0  0  0  0
    3.0466    4.0431    0.8683 H   0  0  0  0  0  0  0  0  0  0  0  0
    3.9277    3.3781    2.2513 H   0  0  0  0  0  0  0  0  0  0  0  0
   -4.2328    1.1982   -0.8675 H   0  0  0  0  0  0  0  0  0  0  0  0
   -5.2551   -0.2692   -0.9227 H   0  0  0  0  0  0  0  0  0  0  0  0
   -3.7838   -0.1612   -1.9376 H   0  0  0  0  0  0  0  0  0  0  0  0
   -1.6122   -2.7219    2.6671 H   0  0  0  0  0  0  0  0  0  0  0  0
   -1.2402   -2.7242    0.9163 H   0  0  0  0  0  0  0  0  0  0  0  0
   -2.9397   -2.6662    1.4621 H   0  0  0  0  0  0  0  0  0  0  0  0
  1  2  1  0  0  0  0
  2  3  1  0  0  0  0
  3  4  1  0  0  0  0
  4  5  2  0  0  0  0
  4  6  1  0  0  0  0
  6  7  1  0  0  0  0
  7  8  1  0  0  0  0
  7  9  1  0  0  0  0
  9 10  2  0  0  0  0
  9 11  4  0  0  0  0
 11 12  1  0  0  0  0
 12 13  1  0  0  0  0
  7 14  1  0  0  0  0
 14 15  1  0  0  0  0
 15 16  2  0  0  0  0
 15 17  1  0  0  0  0
 17 18  1  0  0  0  0
 15 19  2  0  0  0  0
 19 20  1  0  0  0  0
  1 21  1  0  0  0  0
  1 22  1  0  0  0  0
  1 23  1  0  0  0  0
  2 24  1  0  0  0  0
  2 25  1  0  0  0  0
  6 26  1  0  0  0  0
  6 27  1  0  0  0  0
 12 28  1  0  0  0  0
 12 29  1  0  0  0  0
 13 30  1  0  0  0  0
 13 31  1  0  0  0  0
 13 32  1  0  0  0  0
 18 33  1  0  0  0  0
 18 34  1  0  0  0  0
 18 35  1  0  0  0  0
 20 36  1  0  0  0  0
 20 37  1  0  0  0  0
 20 38  1  0  0  0  0
M  END
