 xtb: 6.7.1 (edcfbbe)
          04092507313D

 38 37  0     0  0            999 V2000
    4.2445   -3.7716   -1.0009 C   0  0  0  0  0  0  0  0  0  0  0  0
    2.7323   -3.7318   -0.8479 C   0  0  0  0  0  0  0  0  0  0  0  0
    2.3035   -2.4815   -0.2734 O   0  0  0  0  0  0  0  0  0  0  0  0
    2.1264   -1.4520   -1.0758 C   0  0  0  0  0  0  0  0  0  0  0  0
    2.2521   -1.4825   -2.2796 O   0  0  0  0  0  0  0  0  0  0  0  0
    1.7295   -0.2096   -0.3001 C   0  0  0  0  0  0  0  0  0  0  0  0
    0.6654    0.5633   -1.0707 C   0  0  0  0  0  0  0  0  0  0  0  0
    1.0081    0.7065   -2.1017 H   0  0  0  0  0  0  0  0  0  0  0  0
    0.3513    1.9175   -0.4644 C   0  0  0  0  0  0  0  0  0  0  0  0
   -0.7865    2.2881   -0.2541 O   0  0  0  0  0  0  0  0  0  0  0  0
    1.4310    2.6135   -0.2424 O   0  0  0  0  0  0  0  0  0  0  0  0
    1.3046    3.9056    0.3923 C   0  0  0  0  0  0  0  0  0  0  0  0
    1.4614    3.7667    1.8973 C   0  0  0  0  0  0  0  0  0  0  0  0
   -0.8881   -0.3741   -1.2329 S   0  0  0  0  0  0  0  0  0  0  0  0
   -1.8276    0.0416    0.6375 P   0  0  0  0  0  0  0  0  0  0  0  0
   -0.7323    0.4565    2.2051 S   0  0  0  0  0  0  0  0  0  0  0  0
   -3.0596    1.0090    0.4460 O   0  0  0  0  0  0  0  0  0  0  0  0
   -4.0083    0.8656   -0.6272 C   0  0  0  0  0  0  0  0  0  0  0  0
   -2.6300   -1.3428    0.8224 O   0  0  0  0  0  0  0  0  0  0  0  0
   -1.9479   -2.5600    1.1304 C   0  0  0  0  0  0  0  0  0  0  0  0
    4.7226   -3.5847   -0.0433 H   0  0  0  0  0  0  0  0  0  0  0  0
    4.5420   -4.7495   -1.3649 H   0  0  0  0  0  0  0  0  0  0  0  0
    4.5686   -3.0167   -1.7135 H   0  0  0  0  0  0  0  0  0  0  0  0
    2.3840   -4.4873   -0.1437 H   0  0  0  0  0  0  0  0  0  0  0  0
    2.2414   -3.8550   -1.8175 H   0  0  0  0  0  0  0  0  0  0  0  0
    2.6126    0.4253   -0.1964 H   0  0  0  0  0  0  0  0  0  0  0  0
    1.3834   -0.4924    0.6953 H   0  0  0  0  0  0  0  0  0  0  0  0
    2.1070    4.5028   -0.0413 H   0  0  0  0  0  0  0  0  0  0  0  0
    0.3289    4.3268    0.1369 H   0  0  0  0  0  0  0  0  0  0  0  0
    0.6900    3.1108    2.2975 H   0  0  0  0  0  0  0  0  0  0  0  0
    2.4329    3.3457    2.1387 H   0  0  0  0  0  0  0  0  0  0  0  0
    1.3679    4.7436    2.3594 H   0  0  0  0  0  0  0  0  0  0  0  0
   -4.7356    1.6571   -0.4662 H   0  0  0  0  0  0  0  0  0  0  0  0
   -4.4803   -0.1143   -0.5799 H   0  0  0  0  0  0  0  0  0  0  0  0
   -3.5048    0.9965   -1.5849 H   0  0  0  0  0  0  0  0  0  0  0  0
   -2.7240   -3.2729    1.3965 H   0  0  0  0  0  0  0  0  0  0  0  0
   -1.2673   -2.4061    1.9697 H   0  0  0  0  0  0  0  0  0  0  0  0
   -1.3914   -2.9054    0.2588 H   0  0  0  0  0  0  0  0  0  0  0  0
  1  2  1  0  0  0  0
  2  3  1  0  0  0  0
  3  4  1  0  0  0  0
  4  5  2  0  0  0  0
  4  6  1  0  0  0  0
  6  7  1  0  0  0  0
  7  8  1  0  0  0  0
  7  9  1  0  0  0  0
  9 10  2  0  0  0  0
  9 11  4  0  0  0  0
 11 12  1  0  0  0  0
 12 13  1  0  0  0  0
  7 14  1  0  0  0  0
 14 15  1  0  0  0  0
 15 16  2  0  0  0  0
 15 17  2  0  0  0  0
 17 18  1  0  0  0  0
 15 19  1  0  0  0  0
 19 20  1  0  0  0  0
  1 21  1  0  0  0  0
  1 22  1  0  0  0  0
  1 23  1  0  0  0  0
  2 24  1  0  0  0  0
  2 25  1  0  0  0  0
  6 26  1  0  0  0  0
  6 27  1  0  0  0  0
 12 28  1  0  0  0  0
 12 29  1  0  0  0  0
 13 30  1  0  0  0  0
 13 31  1  0  0  0  0
 13 32  1  0  0  0  0
 18 33  1  0  0  0  0
 18 34  1  0  0  0  0
 18 35  1  0  0  0  0
 20 36  1  0  0  0  0
 20 37  1  0  0  0  0
 20 38  1  0  0  0  0
M  END
