 xtb: 6.7.1 (edcfbbe)
          04092507313D

 38 37  0     0  0            999 V2000
    3.0394   -3.7862    0.3000 C   0  0  0  0  0  0  0  0  0  0  0  0
    2.7539   -2.3352    0.6297 C   0  0  0  0  0  0  0  0  0  0  0  0
    2.3739   -1.6698   -0.5906 O   0  0  0  0  0  0  0  0  0  0  0  0
    2.0918   -0.3902   -0.5392 C   0  0  0  0  0  0  0  0  0  0  0  0
    2.1213    0.2860    0.4701 O   0  0  0  0  0  0  0  0  0  0  0  0
    1.7354    0.1814   -1.8979 C   0  0  0  0  0  0  0  0  0  0  0  0
    0.4021    0.9314   -1.8239 C   0  0  0  0  0  0  0  0  0  0  0  0
    0.2878    1.5698   -2.7026 H   0  0  0  0  0  0  0  0  0  0  0  0
    0.3148    1.7852   -0.5740 C   0  0  0  0  0  0  0  0  0  0  0  0
   -0.5167    1.5659    0.2956 O   0  0  0  0  0  0  0  0  0  0  0  0
    1.1425    2.7787   -0.5927 O   0  0  0  0  0  0  0  0  0  0  0  0
    1.2489    3.6581    0.5520 C   0  0  0  0  0  0  0  0  0  0  0  0
    2.6366    3.5234    1.1529 C   0  0  0  0  0  0  0  0  0  0  0  0
   -1.0332   -0.2008   -1.8535 S   0  0  0  0  0  0  0  0  0  0  0  0
   -1.6478   -0.4923    0.1499 P   0  0  0  0  0  0  0  0  0  0  0  0
   -0.5750   -1.0483    1.7065 S   0  0  0  0  0  0  0  0  0  0  0  0
   -2.9101    0.4324    0.5042 O   0  0  0  0  0  0  0  0  0  0  0  0
   -2.9592    1.4224    1.5287 C   0  0  0  0  0  0  0  0  0  0  0  0
   -2.4702   -1.7649   -0.4161 O   0  0  0  0  0  0  0  0  0  0  0  0
   -3.2601   -2.5938    0.4349 C   0  0  0  0  0  0  0  0  0  0  0  0
    2.1495   -4.2530   -0.1117 H   0  0  0  0  0  0  0  0  0  0  0  0
    3.8424   -3.8519   -0.4279 H   0  0  0  0  0  0  0  0  0  0  0  0
    3.3288   -4.3071    1.2064 H   0  0  0  0  0  0  0  0  0  0  0  0
    3.6328   -1.8257    1.0370 H   0  0  0  0  0  0  0  0  0  0  0  0
    1.9337   -2.2307    1.3484 H   0  0  0  0  0  0  0  0  0  0  0  0
    1.6757   -0.6189   -2.6330 H   0  0  0  0  0  0  0  0  0  0  0  0
    2.5208    0.8878   -2.1745 H   0  0  0  0  0  0  0  0  0  0  0  0
    1.0764    4.6629    0.1621 H   0  0  0  0  0  0  0  0  0  0  0  0
    0.4756    3.3913    1.2757 H   0  0  0  0  0  0  0  0  0  0  0  0
    2.8032    2.4930    1.4587 H   0  0  0  0  0  0  0  0  0  0  0  0
    3.3904    3.8018    0.4230 H   0  0  0  0  0  0  0  0  0  0  0  0
    2.7161    4.1708    2.0196 H   0  0  0  0  0  0  0  0  0  0  0  0
   -2.7867    2.4044    1.0924 H   0  0  0  0  0  0  0  0  0  0  0  0
   -2.2026    1.2169    2.2879 H   0  0  0  0  0  0  0  0  0  0  0  0
   -3.9565    1.3612    1.9596 H   0  0  0  0  0  0  0  0  0  0  0  0
   -3.4437   -3.5059   -0.1277 H   0  0  0  0  0  0  0  0  0  0  0  0
   -4.1988   -2.0950    0.6751 H   0  0  0  0  0  0  0  0  0  0  0  0
   -2.7129   -2.8160    1.3542 H   0  0  0  0  0  0  0  0  0  0  0  0
  1  2  1  0  0  0  0
  2  3  1  0  0  0  0
  3  4  4  0  0  0  0
  4  5  2  0  0  0  0
  4  6  1  0  0  0  0
  6  7  1  0  0  0  0
  7  8  1  0  0  0  0
  7  9  1  0  0  0  0
  9 10  2  0  0  0  0
  9 11  4  0  0  0  0
 11 12  1  0  0  0  0
 12 13  1  0  0  0  0
  7 14  1  0  0  0  0
 14 15  1  0  0  0  0
 15 16  2  0  0  0  0
 15 17  1  0  0  0  0
 17 18  1  0  0  0  0
 15 19  1  0  0  0  0
 19 20  1  0  0  0  0
  1 21  1  0  0  0  0
  1 22  1  0  0  0  0
  1 23  1  0  0  0  0
  2 24  1  0  0  0  0
  2 25  1  0  0  0  0
  6 26  1  0  0  0  0
  6 27  1  0  0  0  0
 12 28  1  0  0  0  0
 12 29  1  0  0  0  0
 13 30  1  0  0  0  0
 13 31  1  0  0  0  0
 13 32  1  0  0  0  0
 18 33  1  0  0  0  0
 18 34  1  0  0  0  0
 18 35  1  0  0  0  0
 20 36  1  0  0  0  0
 20 37  1  0  0  0  0
 20 38  1  0  0  0  0
M  END
