 xtb: 6.7.1 (edcfbbe)
          04092505213D

 41 40  0     0  0            999 V2000
    5.4159   -1.0024   -1.6223 C   0  0  0  0  0  0  0  0  0  0  0  0
    4.0887   -0.3304   -1.9089 C   0  0  0  0  0  0  0  0  0  0  0  0
    3.6249    0.3993   -0.7462 O   0  0  0  0  0  0  0  0  0  0  0  0
    2.5743   -0.1676    0.2842 P   0  0  0  0  0  0  0  0  0  0  0  0
    2.3588    1.1299    1.7334 S   0  0  0  0  0  0  0  0  0  0  0  0
    3.1563   -1.6065    0.6207 O   0  0  0  0  0  0  0  0  0  0  0  0
    2.4013   -2.6778    1.2173 C   0  0  0  0  0  0  0  0  0  0  0  0
    1.8279   -2.3032    2.5679 C   0  0  0  0  0  0  0  0  0  0  0  0
    0.8373   -0.6339   -0.8741 S   0  0  0  0  0  0  0  0  0  0  0  0
    0.1013    1.0193   -0.8425 C   0  0  0  0  0  0  0  0  0  0  0  0
   -0.9436    1.3031    0.6128 S   0  0  0  0  0  0  0  0  0  0  0  0
   -2.7498    0.4266   -0.1254 P   0  0  0  0  0  0  0  0  0  0  0  0
   -2.8382    0.1644   -2.0719 S   0  0  0  0  0  0  0  0  0  0  0  0
   -3.9191    1.3068    0.4728 O   0  0  0  0  0  0  0  0  0  0  0  0
   -4.4831    2.4120   -0.2527 C   0  0  0  0  0  0  0  0  0  0  0  0
   -3.5263    3.5851   -0.3346 C   0  0  0  0  0  0  0  0  0  0  0  0
   -3.0174   -0.8210    0.8117 O   0  0  0  0  0  0  0  0  0  0  0  0
   -2.0800   -1.8817    1.0604 C   0  0  0  0  0  0  0  0  0  0  0  0
   -1.9797   -2.8426   -0.1083 C   0  0  0  0  0  0  0  0  0  0  0  0
    6.1460   -0.2625   -1.3060 H   0  0  0  0  0  0  0  0  0  0  0  0
    5.3022   -1.7399   -0.8325 H   0  0  0  0  0  0  0  0  0  0  0  0
    5.7686   -1.4921   -2.5245 H   0  0  0  0  0  0  0  0  0  0  0  0
    3.3272   -1.0597   -2.1991 H   0  0  0  0  0  0  0  0  0  0  0  0
    4.1885    0.4283   -2.6873 H   0  0  0  0  0  0  0  0  0  0  0  0
    1.6074   -2.9647    0.5219 H   0  0  0  0  0  0  0  0  0  0  0  0
    3.1274   -3.4878    1.3050 H   0  0  0  0  0  0  0  0  0  0  0  0
    2.6199   -1.9811    3.2394 H   0  0  0  0  0  0  0  0  0  0  0  0
    1.1200   -1.4819    2.4636 H   0  0  0  0  0  0  0  0  0  0  0  0
    1.3180   -3.1600    2.9961 H   0  0  0  0  0  0  0  0  0  0  0  0
   -0.5093    1.1040   -1.7431 H   0  0  0  0  0  0  0  0  0  0  0  0
    0.8906    1.7672   -0.8138 H   0  0  0  0  0  0  0  0  0  0  0  0
   -4.7592    2.0692   -1.2556 H   0  0  0  0  0  0  0  0  0  0  0  0
   -5.3815    2.6652    0.3116 H   0  0  0  0  0  0  0  0  0  0  0  0
   -2.6726    3.3267   -0.9599 H   0  0  0  0  0  0  0  0  0  0  0  0
   -4.0371    4.4370   -0.7720 H   0  0  0  0  0  0  0  0  0  0  0  0
   -3.1675    3.8487    0.6573 H   0  0  0  0  0  0  0  0  0  0  0  0
   -1.1029   -1.4465    1.2952 H   0  0  0  0  0  0  0  0  0  0  0  0
   -2.4786   -2.3759    1.9483 H   0  0  0  0  0  0  0  0  0  0  0  0
   -1.5382   -2.3486   -0.9722 H   0  0  0  0  0  0  0  0  0  0  0  0
   -1.3571   -3.6857    0.1731 H   0  0  0  0  0  0  0  0  0  0  0  0
   -2.9688   -3.2011   -0.3804 H   0  0  0  0  0  0  0  0  0  0  0  0
  1  2  1  0  0  0  0
  2  3  1  0  0  0  0
  3  4  2  0  0  0  0
  4  5  2  0  0  0  0
  4  6  2  0  0  0  0
  6  7  1  0  0  0  0
  7  8  1  0  0  0  0
  4  9  1  0  0  0  0
  9 10  1  0  0  0  0
 10 11  1  0  0  0  0
 11 12  1  0  0  0  0
 12 13  2  0  0  0  0
 12 14  2  0  0  0  0
 14 15  1  0  0  0  0
 15 16  1  0  0  0  0
 12 17  2  0  0  0  0
 17 18  1  0  0  0  0
 18 19  1  0  0  0  0
  1 20  1  0  0  0  0
  1 21  1  0  0  0  0
  1 22  1  0  0  0  0
  2 23  1  0  0  0  0
  2 24  1  0  0  0  0
  7 25  1  0  0  0  0
  7 26  1  0  0  0  0
  8 27  1  0  0  0  0
  8 28  1  0  0  0  0
  8 29  1  0  0  0  0
 10 30  1  0  0  0  0
 10 31  1  0  0  0  0
 15 32  1  0  0  0  0
 15 33  1  0  0  0  0
 16 34  1  0  0  0  0
 16 35  1  0  0  0  0
 16 36  1  0  0  0  0
 18 37  1  0  0  0  0
 18 38  1  0  0  0  0
 19 39  1  0  0  0  0
 19 40  1  0  0  0  0
 19 41  1  0  0  0  0
M  END
