 xtb: 6.7.1 (edcfbbe)
          04092505213D

 41 40  0     0  0            999 V2000
    1.3602    2.0796   -1.4358 C   0  0  0  0  0  0  0  0  0  0  0  0
    2.7049    1.8131   -0.7888 C   0  0  0  0  0  0  0  0  0  0  0  0
    2.5451    1.1866    0.5073 O   0  0  0  0  0  0  0  0  0  0  0  0
    2.6340   -0.3560    0.8187 P   0  0  0  0  0  0  0  0  0  0  0  0
    2.6234   -0.6034    2.7593 S   0  0  0  0  0  0  0  0  0  0  0  0
    3.9345   -0.7641    0.0026 O   0  0  0  0  0  0  0  0  0  0  0  0
    4.2988   -2.1080   -0.3664 C   0  0  0  0  0  0  0  0  0  0  0  0
    4.3608   -3.0440    0.8219 C   0  0  0  0  0  0  0  0  0  0  0  0
    1.0787   -1.3839   -0.2263 S   0  0  0  0  0  0  0  0  0  0  0  0
   -0.1747   -1.1953    1.0585 C   0  0  0  0  0  0  0  0  0  0  0  0
   -0.8401    0.4917    1.1829 S   0  0  0  0  0  0  0  0  0  0  0  0
   -2.2714    0.3270   -0.3670 P   0  0  0  0  0  0  0  0  0  0  0  0
   -1.6871   -0.2848   -2.1388 S   0  0  0  0  0  0  0  0  0  0  0  0
   -2.9715    1.7500   -0.3447 O   0  0  0  0  0  0  0  0  0  0  0  0
   -2.5405    2.8574   -1.1610 C   0  0  0  0  0  0  0  0  0  0  0  0
   -3.7676    3.6150   -1.6292 C   0  0  0  0  0  0  0  0  0  0  0  0
   -3.3220   -0.6043    0.3640 O   0  0  0  0  0  0  0  0  0  0  0  0
   -4.3276   -1.3387   -0.3679 C   0  0  0  0  0  0  0  0  0  0  0  0
   -5.3509   -0.4159   -0.9942 C   0  0  0  0  0  0  0  0  0  0  0  0
    0.7146    2.6104   -0.7394 H   0  0  0  0  0  0  0  0  0  0  0  0
    1.5063    2.6875   -2.3231 H   0  0  0  0  0  0  0  0  0  0  0  0
    0.8751    1.1501   -1.7275 H   0  0  0  0  0  0  0  0  0  0  0  0
    3.2237    2.7469   -0.5652 H   0  0  0  0  0  0  0  0  0  0  0  0
    3.3344    1.1824   -1.4184 H   0  0  0  0  0  0  0  0  0  0  0  0
    3.5768   -2.4665   -1.1054 H   0  0  0  0  0  0  0  0  0  0  0  0
    5.2789   -1.9878   -0.8316 H   0  0  0  0  0  0  0  0  0  0  0  0
    3.3707   -3.1609    1.2601 H   0  0  0  0  0  0  0  0  0  0  0  0
    4.7221   -4.0146    0.4978 H   0  0  0  0  0  0  0  0  0  0  0  0
    5.0270   -2.6461    1.5837 H   0  0  0  0  0  0  0  0  0  0  0  0
    0.2808   -1.4151    2.0258 H   0  0  0  0  0  0  0  0  0  0  0  0
   -0.9792   -1.8902    0.8314 H   0  0  0  0  0  0  0  0  0  0  0  0
   -1.8975    3.4892   -0.5438 H   0  0  0  0  0  0  0  0  0  0  0  0
   -1.9661    2.4694   -2.0090 H   0  0  0  0  0  0  0  0  0  0  0  0
   -3.4521    4.4871   -2.1925 H   0  0  0  0  0  0  0  0  0  0  0  0
   -4.3819    2.9832   -2.2647 H   0  0  0  0  0  0  0  0  0  0  0  0
   -4.3560    3.9326   -0.7733 H   0  0  0  0  0  0  0  0  0  0  0  0
   -3.8288   -1.9386   -1.1361 H   0  0  0  0  0  0  0  0  0  0  0  0
   -4.7734   -1.9904    0.3847 H   0  0  0  0  0  0  0  0  0  0  0  0
   -5.7691    0.2471   -0.2415 H   0  0  0  0  0  0  0  0  0  0  0  0
   -4.8778    0.1839   -1.7704 H   0  0  0  0  0  0  0  0  0  0  0  0
   -6.1450   -1.0071   -1.4395 H   0  0  0  0  0  0  0  0  0  0  0  0
  1  2  1  0  0  0  0
  2  3  1  0  0  0  0
  3  4  2  0  0  0  0
  4  5  2  0  0  0  0
  4  6  2  0  0  0  0
  6  7  1  0  0  0  0
  7  8  1  0  0  0  0
  4  9  1  0  0  0  0
  9 10  1  0  0  0  0
 10 11  1  0  0  0  0
 11 12  1  0  0  0  0
 12 13  2  0  0  0  0
 12 14  2  0  0  0  0
 14 15  1  0  0  0  0
 15 16  1  0  0  0  0
 12 17  2  0  0  0  0
 17 18  1  0  0  0  0
 18 19  1  0  0  0  0
  1 20  1  0  0  0  0
  1 21  1  0  0  0  0
  1 22  1  0  0  0  0
  2 23  1  0  0  0  0
  2 24  1  0  0  0  0
  7 25  1  0  0  0  0
  7 26  1  0  0  0  0
  8 27  1  0  0  0  0
  8 28  1  0  0  0  0
  8 29  1  0  0  0  0
 10 30  1  0  0  0  0
 10 31  1  0  0  0  0
 15 32  1  0  0  0  0
 15 33  1  0  0  0  0
 16 34  1  0  0  0  0
 16 35  1  0  0  0  0
 16 36  1  0  0  0  0
 18 37  1  0  0  0  0
 18 38  1  0  0  0  0
 19 39  1  0  0  0  0
 19 40  1  0  0  0  0
 19 41  1  0  0  0  0
M  END
