 xtb: 6.7.1 (edcfbbe)
          04092505203D

 41 40  0     0  0            999 V2000
    3.0491   -0.1129   -2.8691 C   0  0  0  0  0  0  0  0  0  0  0  0
    1.7915   -0.8056   -2.3891 C   0  0  0  0  0  0  0  0  0  0  0  0
    1.8931   -1.2289   -1.0155 O   0  0  0  0  0  0  0  0  0  0  0  0
    2.1297   -0.2430    0.1997 P   0  0  0  0  0  0  0  0  0  0  0  0
    1.2961    1.5354    0.0853 S   0  0  0  0  0  0  0  0  0  0  0  0
    3.7148   -0.2192    0.2925 O   0  0  0  0  0  0  0  0  0  0  0  0
    4.4351    0.7513    1.0715 C   0  0  0  0  0  0  0  0  0  0  0  0
    4.2227    0.5616    2.5595 C   0  0  0  0  0  0  0  0  0  0  0  0
    1.5376   -1.5016    1.7767 S   0  0  0  0  0  0  0  0  0  0  0  0
   -0.2329   -1.1265    1.7819 C   0  0  0  0  0  0  0  0  0  0  0  0
   -1.0794   -1.6246    0.2404 S   0  0  0  0  0  0  0  0  0  0  0  0
   -2.0628    0.1793   -0.2503 P   0  0  0  0  0  0  0  0  0  0  0  0
   -2.2230    1.5479    1.1482 S   0  0  0  0  0  0  0  0  0  0  0  0
   -3.4543   -0.3123   -0.8463 O   0  0  0  0  0  0  0  0  0  0  0  0
   -4.6286   -0.4781   -0.0347 C   0  0  0  0  0  0  0  0  0  0  0  0
   -4.4838   -1.6067    0.9659 C   0  0  0  0  0  0  0  0  0  0  0  0
   -1.3001    0.5659   -1.5868 O   0  0  0  0  0  0  0  0  0  0  0  0
   -1.3650    1.8946   -2.1459 C   0  0  0  0  0  0  0  0  0  0  0  0
   -2.7681    2.2761   -2.5652 C   0  0  0  0  0  0  0  0  0  0  0  0
    3.9145   -0.7476   -2.6968 H   0  0  0  0  0  0  0  0  0  0  0  0
    2.9610    0.1008   -3.9298 H   0  0  0  0  0  0  0  0  0  0  0  0
    3.1854    0.8235   -2.3285 H   0  0  0  0  0  0  0  0  0  0  0  0
    1.6066   -1.7355   -2.9291 H   0  0  0  0  0  0  0  0  0  0  0  0
    0.9211   -0.1488   -2.4811 H   0  0  0  0  0  0  0  0  0  0  0  0
    5.4765    0.5914    0.7891 H   0  0  0  0  0  0  0  0  0  0  0  0
    4.1134    1.7511    0.7619 H   0  0  0  0  0  0  0  0  0  0  0  0
    3.1915    0.7944    2.8221 H   0  0  0  0  0  0  0  0  0  0  0  0
    4.4310   -0.4671    2.8425 H   0  0  0  0  0  0  0  0  0  0  0  0
    4.8831    1.2285    3.1046 H   0  0  0  0  0  0  0  0  0  0  0  0
   -0.3914   -0.0550    1.9335 H   0  0  0  0  0  0  0  0  0  0  0  0
   -0.6494   -1.7028    2.6040 H   0  0  0  0  0  0  0  0  0  0  0  0
   -4.8261    0.4666    0.4820 H   0  0  0  0  0  0  0  0  0  0  0  0
   -5.4195   -0.6796   -0.7583 H   0  0  0  0  0  0  0  0  0  0  0  0
   -3.7389   -1.3432    1.7157 H   0  0  0  0  0  0  0  0  0  0  0  0
   -5.4360   -1.7723    1.4595 H   0  0  0  0  0  0  0  0  0  0  0  0
   -4.1713   -2.5194    0.4648 H   0  0  0  0  0  0  0  0  0  0  0  0
   -0.9695    2.5966   -1.4040 H   0  0  0  0  0  0  0  0  0  0  0  0
   -0.6866    1.8521   -2.9997 H   0  0  0  0  0  0  0  0  0  0  0  0
   -2.7390    3.2327   -3.0774 H   0  0  0  0  0  0  0  0  0  0  0  0
   -3.1801    1.5192   -3.2277 H   0  0  0  0  0  0  0  0  0  0  0  0
   -3.4074    2.3650   -1.6876 H   0  0  0  0  0  0  0  0  0  0  0  0
  1  2  1  0  0  0  0
  2  3  1  0  0  0  0
  3  4  2  0  0  0  0
  4  5  2  0  0  0  0
  4  6  2  0  0  0  0
  6  7  1  0  0  0  0
  7  8  1  0  0  0  0
  4  9  1  0  0  0  0
  9 10  1  0  0  0  0
 10 11  1  0  0  0  0
 11 12  1  0  0  0  0
 12 13  2  0  0  0  0
 12 14  2  0  0  0  0
 14 15  1  0  0  0  0
 15 16  1  0  0  0  0
 12 17  2  0  0  0  0
 17 18  1  0  0  0  0
 18 19  1  0  0  0  0
  1 20  1  0  0  0  0
  1 21  1  0  0  0  0
  1 22  1  0  0  0  0
  2 23  1  0  0  0  0
  2 24  1  0  0  0  0
  7 25  1  0  0  0  0
  7 26  1  0  0  0  0
  8 27  1  0  0  0  0
  8 28  1  0  0  0  0
  8 29  1  0  0  0  0
 10 30  1  0  0  0  0
 10 31  1  0  0  0  0
 15 32  1  0  0  0  0
 15 33  1  0  0  0  0
 16 34  1  0  0  0  0
 16 35  1  0  0  0  0
 16 36  1  0  0  0  0
 18 37  1  0  0  0  0
 18 38  1  0  0  0  0
 19 39  1  0  0  0  0
 19 40  1  0  0  0  0
 19 41  1  0  0  0  0
M  END
