 xtb: 6.7.1 (edcfbbe)
          04092514023D

 41 40  0     0  0            999 V2000
    4.8731    0.2211   -1.8549 C   0  0  0  0  0  0  0  0  0  0  0  0
    4.6485    1.0766   -0.6244 C   0  0  0  0  0  0  0  0  0  0  0  0
    3.7388    0.4790    0.3166 O   0  0  0  0  0  0  0  0  0  0  0  0
    2.1757    0.3284    0.0728 P   0  0  0  0  0  0  0  0  0  0  0  0
    1.3269    1.7857   -0.9235 S   0  0  0  0  0  0  0  0  0  0  0  0
    1.5879    0.2497    1.5347 O   0  0  0  0  0  0  0  0  0  0  0  0
    1.7012   -0.8467    2.4743 C   0  0  0  0  0  0  0  0  0  0  0  0
    3.1327   -1.1669    2.8456 C   0  0  0  0  0  0  0  0  0  0  0  0
    1.9855   -1.6123   -0.7758 S   0  0  0  0  0  0  0  0  0  0  0  0
    0.2716   -1.5095   -1.3297 C   0  0  0  0  0  0  0  0  0  0  0  0
   -0.9336   -1.7707    0.0264 S   0  0  0  0  0  0  0  0  0  0  0  0
   -2.1371   -0.0550   -0.1645 P   0  0  0  0  0  0  0  0  0  0  0  0
   -2.3176    0.6984   -1.9689 S   0  0  0  0  0  0  0  0  0  0  0  0
   -1.5315    0.8849    0.9544 O   0  0  0  0  0  0  0  0  0  0  0  0
   -1.7437    2.3101    0.9595 C   0  0  0  0  0  0  0  0  0  0  0  0
   -3.1724    2.6679    1.3087 C   0  0  0  0  0  0  0  0  0  0  0  0
   -3.4993   -0.5153    0.5141 O   0  0  0  0  0  0  0  0  0  0  0  0
   -4.4764   -1.3210   -0.1780 C   0  0  0  0  0  0  0  0  0  0  0  0
   -5.8179   -1.1310    0.5033 C   0  0  0  0  0  0  0  0  0  0  0  0
    5.1952   -0.7782   -1.5751 H   0  0  0  0  0  0  0  0  0  0  0  0
    3.9551    0.1473   -2.4352 H   0  0  0  0  0  0  0  0  0  0  0  0
    5.6385    0.6857   -2.4695 H   0  0  0  0  0  0  0  0  0  0  0  0
    4.2579    2.0591   -0.9066 H   0  0  0  0  0  0  0  0  0  0  0  0
    5.5691    1.1954   -0.0503 H   0  0  0  0  0  0  0  0  0  0  0  0
    1.1317   -0.4903    3.3344 H   0  0  0  0  0  0  0  0  0  0  0  0
    1.2036   -1.7206    2.0437 H   0  0  0  0  0  0  0  0  0  0  0  0
    3.6400   -0.2759    3.2061 H   0  0  0  0  0  0  0  0  0  0  0  0
    3.1278   -1.9182    3.6299 H   0  0  0  0  0  0  0  0  0  0  0  0
    3.6711   -1.5561    1.9845 H   0  0  0  0  0  0  0  0  0  0  0  0
    0.1387   -2.3100   -2.0528 H   0  0  0  0  0  0  0  0  0  0  0  0
    0.0822   -0.5330   -1.7837 H   0  0  0  0  0  0  0  0  0  0  0  0
   -1.0352    2.6752    1.7047 H   0  0  0  0  0  0  0  0  0  0  0  0
   -1.4673    2.7052   -0.0243 H   0  0  0  0  0  0  0  0  0  0  0  0
   -3.2576    3.7466    1.3988 H   0  0  0  0  0  0  0  0  0  0  0  0
   -3.8434    2.3243    0.5224 H   0  0  0  0  0  0  0  0  0  0  0  0
   -3.4584    2.2005    2.2472 H   0  0  0  0  0  0  0  0  0  0  0  0
   -4.5116   -1.0045   -1.2259 H   0  0  0  0  0  0  0  0  0  0  0  0
   -4.1521   -2.3638   -0.1286 H   0  0  0  0  0  0  0  0  0  0  0  0
   -5.7472   -1.4121    1.5499 H   0  0  0  0  0  0  0  0  0  0  0  0
   -6.1323   -0.0932    0.4374 H   0  0  0  0  0  0  0  0  0  0  0  0
   -6.5557   -1.7578    0.0125 H   0  0  0  0  0  0  0  0  0  0  0  0
  1  2  1  0  0  0  0
  2  3  1  0  0  0  0
  3  4  2  0  0  0  0
  4  5  2  0  0  0  0
  4  6  2  0  0  0  0
  6  7  1  0  0  0  0
  7  8  1  0  0  0  0
  4  9  1  0  0  0  0
  9 10  1  0  0  0  0
 10 11  1  0  0  0  0
 11 12  1  0  0  0  0
 12 13  2  0  0  0  0
 12 14  2  0  0  0  0
 14 15  1  0  0  0  0
 15 16  1  0  0  0  0
 12 17  2  0  0  0  0
 17 18  1  0  0  0  0
 18 19  1  0  0  0  0
  1 20  1  0  0  0  0
  1 21  1  0  0  0  0
  1 22  1  0  0  0  0
  2 23  1  0  0  0  0
  2 24  1  0  0  0  0
  7 25  1  0  0  0  0
  7 26  1  0  0  0  0
  8 27  1  0  0  0  0
  8 28  1  0  0  0  0
  8 29  1  0  0  0  0
 10 30  1  0  0  0  0
 10 31  1  0  0  0  0
 15 32  1  0  0  0  0
 15 33  1  0  0  0  0
 16 34  1  0  0  0  0
 16 35  1  0  0  0  0
 16 36  1  0  0  0  0
 18 37  1  0  0  0  0
 18 38  1  0  0  0  0
 19 39  1  0  0  0  0
 19 40  1  0  0  0  0
 19 41  1  0  0  0  0
M  END
