 xtb: 6.7.1 (edcfbbe)
          04092505203D

 41 40  0     0  0            999 V2000
    2.7403    0.6937   -2.2236 C   0  0  0  0  0  0  0  0  0  0  0  0
    2.1784    1.6594   -1.2031 C   0  0  0  0  0  0  0  0  0  0  0  0
    1.3583    1.0076   -0.1991 O   0  0  0  0  0  0  0  0  0  0  0  0
    1.8933   -0.0074    0.8883 P   0  0  0  0  0  0  0  0  0  0  0  0
    0.9704    0.1862    2.6089 S   0  0  0  0  0  0  0  0  0  0  0  0
    3.4444    0.3233    0.9549 O   0  0  0  0  0  0  0  0  0  0  0  0
    4.2609   -0.0871    2.0650 C   0  0  0  0  0  0  0  0  0  0  0  0
    4.4254   -1.5917    2.1196 C   0  0  0  0  0  0  0  0  0  0  0  0
    1.8233   -1.9405   -0.0288 S   0  0  0  0  0  0  0  0  0  0  0  0
    0.2184   -1.8459   -0.8584 C   0  0  0  0  0  0  0  0  0  0  0  0
   -1.1384   -1.3747    0.2589 S   0  0  0  0  0  0  0  0  0  0  0  0
   -2.0867    0.1118   -0.9524 P   0  0  0  0  0  0  0  0  0  0  0  0
   -1.0606    0.8024   -2.4616 S   0  0  0  0  0  0  0  0  0  0  0  0
   -2.6614    1.1388    0.1169 O   0  0  0  0  0  0  0  0  0  0  0  0
   -1.8514    2.0319    0.9004 C   0  0  0  0  0  0  0  0  0  0  0  0
   -1.6018    3.3326    0.1641 C   0  0  0  0  0  0  0  0  0  0  0  0
   -3.4029   -0.5708   -1.4845 O   0  0  0  0  0  0  0  0  0  0  0  0
   -4.3945   -1.1985   -0.6364 C   0  0  0  0  0  0  0  0  0  0  0  0
   -5.5313   -0.2430   -0.3371 C   0  0  0  0  0  0  0  0  0  0  0  0
    3.3639   -0.0542   -1.7392 H   0  0  0  0  0  0  0  0  0  0  0  0
    1.9345    0.2024   -2.7637 H   0  0  0  0  0  0  0  0  0  0  0  0
    3.3427    1.2516   -2.9336 H   0  0  0  0  0  0  0  0  0  0  0  0
    1.4872    2.3632   -1.6694 H   0  0  0  0  0  0  0  0  0  0  0  0
    2.9761    2.1960   -0.6881 H   0  0  0  0  0  0  0  0  0  0  0  0
    5.2115    0.4185    1.8905 H   0  0  0  0  0  0  0  0  0  0  0  0
    3.8032    0.2842    2.9875 H   0  0  0  0  0  0  0  0  0  0  0  0
    5.1215   -1.8497    2.9111 H   0  0  0  0  0  0  0  0  0  0  0  0
    3.4644   -2.0615    2.3281 H   0  0  0  0  0  0  0  0  0  0  0  0
    4.7987   -1.9692    1.1712 H   0  0  0  0  0  0  0  0  0  0  0  0
    0.0303   -2.8474   -1.2377 H   0  0  0  0  0  0  0  0  0  0  0  0
    0.2547   -1.1141   -1.6702 H   0  0  0  0  0  0  0  0  0  0  0  0
   -2.4277    2.1940    1.8134 H   0  0  0  0  0  0  0  0  0  0  0  0
   -0.9099    1.5404    1.1604 H   0  0  0  0  0  0  0  0  0  0  0  0
   -1.0254    3.9960    0.8008 H   0  0  0  0  0  0  0  0  0  0  0  0
   -1.0444    3.1450   -0.7511 H   0  0  0  0  0  0  0  0  0  0  0  0
   -2.5462    3.8052   -0.0923 H   0  0  0  0  0  0  0  0  0  0  0  0
   -4.7395   -2.0575   -1.2147 H   0  0  0  0  0  0  0  0  0  0  0  0
   -3.9099   -1.5423    0.2822 H   0  0  0  0  0  0  0  0  0  0  0  0
   -5.1714    0.6052    0.2390 H   0  0  0  0  0  0  0  0  0  0  0  0
   -5.9630    0.1216   -1.2652 H   0  0  0  0  0  0  0  0  0  0  0  0
   -6.2932   -0.7658    0.2326 H   0  0  0  0  0  0  0  0  0  0  0  0
  1  2  1  0  0  0  0
  2  3  1  0  0  0  0
  3  4  2  0  0  0  0
  4  5  2  0  0  0  0
  4  6  2  0  0  0  0
  6  7  1  0  0  0  0
  7  8  1  0  0  0  0
  4  9  1  0  0  0  0
  9 10  1  0  0  0  0
 10 11  1  0  0  0  0
 11 12  1  0  0  0  0
 12 13  2  0  0  0  0
 12 14  2  0  0  0  0
 14 15  1  0  0  0  0
 15 16  1  0  0  0  0
 12 17  2  0  0  0  0
 17 18  1  0  0  0  0
 18 19  1  0  0  0  0
  1 20  1  0  0  0  0
  1 21  1  0  0  0  0
  1 22  1  0  0  0  0
  2 23  1  0  0  0  0
  2 24  1  0  0  0  0
  7 25  1  0  0  0  0
  7 26  1  0  0  0  0
  8 27  1  0  0  0  0
  8 28  1  0  0  0  0
  8 29  1  0  0  0  0
 10 30  1  0  0  0  0
 10 31  1  0  0  0  0
 15 32  1  0  0  0  0
 15 33  1  0  0  0  0
 16 34  1  0  0  0  0
 16 35  1  0  0  0  0
 16 36  1  0  0  0  0
 18 37  1  0  0  0  0
 18 38  1  0  0  0  0
 19 39  1  0  0  0  0
 19 40  1  0  0  0  0
 19 41  1  0  0  0  0
M  END
