 xtb: 6.7.1 (edcfbbe)
          04092514033D

 41 40  0     0  0            999 V2000
    4.7560   -1.9688    0.8577 C   0  0  0  0  0  0  0  0  0  0  0  0
    4.7987   -0.4876    0.5413 C   0  0  0  0  0  0  0  0  0  0  0  0
    3.5345    0.1605    0.7725 O   0  0  0  0  0  0  0  0  0  0  0  0
    2.2775    0.0436   -0.2005 P   0  0  0  0  0  0  0  0  0  0  0  0
    2.7516   -0.1404   -2.0980 S   0  0  0  0  0  0  0  0  0  0  0  0
    1.4619    1.3438    0.2141 O   0  0  0  0  0  0  0  0  0  0  0  0
    1.7757    2.6441   -0.3295 C   0  0  0  0  0  0  0  0  0  0  0  0
    0.7468    3.0425   -1.3694 C   0  0  0  0  0  0  0  0  0  0  0  0
    1.0624   -1.4149    0.6909 S   0  0  0  0  0  0  0  0  0  0  0  0
   -0.0798   -1.7411   -0.6890 C   0  0  0  0  0  0  0  0  0  0  0  0
   -0.9171   -0.2836   -1.3842 S   0  0  0  0  0  0  0  0  0  0  0  0
   -2.3462    0.1702    0.0915 P   0  0  0  0  0  0  0  0  0  0  0  0
   -3.4928    1.7140   -0.2841 S   0  0  0  0  0  0  0  0  0  0  0  0
   -1.3934    0.2943    1.3505 O   0  0  0  0  0  0  0  0  0  0  0  0
   -1.9163    0.7063    2.6337 C   0  0  0  0  0  0  0  0  0  0  0  0
   -0.7419    0.8397    3.5799 C   0  0  0  0  0  0  0  0  0  0  0  0
   -3.1434   -1.1742    0.4368 O   0  0  0  0  0  0  0  0  0  0  0  0
   -4.4298   -1.4816   -0.1260 C   0  0  0  0  0  0  0  0  0  0  0  0
   -4.3200   -1.9508   -1.5627 C   0  0  0  0  0  0  0  0  0  0  0  0
    4.3864   -2.1315    1.8666 H   0  0  0  0  0  0  0  0  0  0  0  0
    4.1039   -2.4845    0.1550 H   0  0  0  0  0  0  0  0  0  0  0  0
    5.7590   -2.3761    0.7728 H   0  0  0  0  0  0  0  0  0  0  0  0
    5.0870   -0.3246   -0.5023 H   0  0  0  0  0  0  0  0  0  0  0  0
    5.4869    0.0417    1.2027 H   0  0  0  0  0  0  0  0  0  0  0  0
    1.7626    3.3232    0.5249 H   0  0  0  0  0  0  0  0  0  0  0  0
    2.7798    2.6242   -0.7641 H   0  0  0  0  0  0  0  0  0  0  0  0
   -0.2549    2.9891   -0.9474 H   0  0  0  0  0  0  0  0  0  0  0  0
    0.9407    4.0583   -1.6987 H   0  0  0  0  0  0  0  0  0  0  0  0
    0.7963    2.3731   -2.2260 H   0  0  0  0  0  0  0  0  0  0  0  0
   -0.8144   -2.4458   -0.3077 H   0  0  0  0  0  0  0  0  0  0  0  0
    0.4757   -2.1596   -1.5271 H   0  0  0  0  0  0  0  0  0  0  0  0
   -2.4437    1.6571    2.5007 H   0  0  0  0  0  0  0  0  0  0  0  0
   -2.6265   -0.0496    2.9788 H   0  0  0  0  0  0  0  0  0  0  0  0
   -0.0269    1.5555    3.1831 H   0  0  0  0  0  0  0  0  0  0  0  0
   -1.0965    1.1818    4.5468 H   0  0  0  0  0  0  0  0  0  0  0  0
   -0.2458   -0.1204    3.6921 H   0  0  0  0  0  0  0  0  0  0  0  0
   -4.8247   -2.2641    0.5240 H   0  0  0  0  0  0  0  0  0  0  0  0
   -5.0619   -0.5900   -0.0602 H   0  0  0  0  0  0  0  0  0  0  0  0
   -3.6386   -2.7940   -1.6380 H   0  0  0  0  0  0  0  0  0  0  0  0
   -5.3012   -2.2528   -1.9157 H   0  0  0  0  0  0  0  0  0  0  0  0
   -3.9520   -1.1410   -2.1917 H   0  0  0  0  0  0  0  0  0  0  0  0
  1  2  1  0  0  0  0
  2  3  1  0  0  0  0
  3  4  2  0  0  0  0
  4  5  2  0  0  0  0
  4  6  1  0  0  0  0
  6  7  1  0  0  0  0
  7  8  1  0  0  0  0
  4  9  1  0  0  0  0
  9 10  1  0  0  0  0
 10 11  1  0  0  0  0
 11 12  1  0  0  0  0
 12 13  2  0  0  0  0
 12 14  2  0  0  0  0
 14 15  1  0  0  0  0
 15 16  1  0  0  0  0
 12 17  2  0  0  0  0
 17 18  1  0  0  0  0
 18 19  1  0  0  0  0
  1 20  1  0  0  0  0
  1 21  1  0  0  0  0
  1 22  1  0  0  0  0
  2 23  1  0  0  0  0
  2 24  1  0  0  0  0
  7 25  1  0  0  0  0
  7 26  1  0  0  0  0
  8 27  1  0  0  0  0
  8 28  1  0  0  0  0
  8 29  1  0  0  0  0
 10 30  1  0  0  0  0
 10 31  1  0  0  0  0
 15 32  1  0  0  0  0
 15 33  1  0  0  0  0
 16 34  1  0  0  0  0
 16 35  1  0  0  0  0
 16 36  1  0  0  0  0
 18 37  1  0  0  0  0
 18 38  1  0  0  0  0
 19 39  1  0  0  0  0
 19 40  1  0  0  0  0
 19 41  1  0  0  0  0
M  END
