 xtb: 6.7.1 (edcfbbe)
          04092505213D

 41 40  0     0  0            999 V2000
    5.6526    0.1133   -0.0102 C   0  0  0  0  0  0  0  0  0  0  0  0
    4.4525    0.3801   -0.8948 C   0  0  0  0  0  0  0  0  0  0  0  0
    3.3776    0.9969   -0.1425 O   0  0  0  0  0  0  0  0  0  0  0  0
    2.2126    0.1955    0.5535 P   0  0  0  0  0  0  0  0  0  0  0  0
    1.0014    1.4144    1.4880 S   0  0  0  0  0  0  0  0  0  0  0  0
    2.9807   -0.8524    1.4663 O   0  0  0  0  0  0  0  0  0  0  0  0
    2.3150   -1.6511    2.4623 C   0  0  0  0  0  0  0  0  0  0  0  0
    1.8507   -2.9763    1.8900 C   0  0  0  0  0  0  0  0  0  0  0  0
    1.3515   -0.9857   -1.0029 S   0  0  0  0  0  0  0  0  0  0  0  0
    0.3616    0.3465   -1.7506 C   0  0  0  0  0  0  0  0  0  0  0  0
   -1.2561   -0.2309   -2.3367 S   0  0  0  0  0  0  0  0  0  0  0  0
   -2.4003   -0.0480   -0.5773 P   0  0  0  0  0  0  0  0  0  0  0  0
   -4.3128   -0.3605   -0.8647 S   0  0  0  0  0  0  0  0  0  0  0  0
   -2.0484    1.3657    0.0742 O   0  0  0  0  0  0  0  0  0  0  0  0
   -2.8248    2.5408   -0.1980 C   0  0  0  0  0  0  0  0  0  0  0  0
   -2.5286    3.1020   -1.5744 C   0  0  0  0  0  0  0  0  0  0  0  0
   -1.5845   -1.0417    0.3520 O   0  0  0  0  0  0  0  0  0  0  0  0
   -1.6757   -1.0810    1.7934 C   0  0  0  0  0  0  0  0  0  0  0  0
   -3.0928   -1.2612    2.2920 C   0  0  0  0  0  0  0  0  0  0  0  0
    5.4050   -0.6169    0.7550 H   0  0  0  0  0  0  0  0  0  0  0  0
    6.4642   -0.2693   -0.6213 H   0  0  0  0  0  0  0  0  0  0  0  0
    5.9711    1.0331    0.4729 H   0  0  0  0  0  0  0  0  0  0  0  0
    4.0809   -0.5429   -1.3488 H   0  0  0  0  0  0  0  0  0  0  0  0
    4.6879    1.1092   -1.6721 H   0  0  0  0  0  0  0  0  0  0  0  0
    3.0685   -1.8003    3.2379 H   0  0  0  0  0  0  0  0  0  0  0  0
    1.4793   -1.0759    2.8743 H   0  0  0  0  0  0  0  0  0  0  0  0
    1.0984   -2.8226    1.1190 H   0  0  0  0  0  0  0  0  0  0  0  0
    2.6902   -3.5073    1.4502 H   0  0  0  0  0  0  0  0  0  0  0  0
    1.4267   -3.5787    2.6873 H   0  0  0  0  0  0  0  0  0  0  0  0
    0.8761    0.7201   -2.6318 H   0  0  0  0  0  0  0  0  0  0  0  0
    0.2185    1.1284   -1.0015 H   0  0  0  0  0  0  0  0  0  0  0  0
   -3.8855    2.2832   -0.1089 H   0  0  0  0  0  0  0  0  0  0  0  0
   -2.5395    3.2357    0.5934 H   0  0  0  0  0  0  0  0  0  0  0  0
   -1.4677    3.3164   -1.6770 H   0  0  0  0  0  0  0  0  0  0  0  0
   -2.8228    2.3833   -2.3388 H   0  0  0  0  0  0  0  0  0  0  0  0
   -3.0932    4.0178   -1.7164 H   0  0  0  0  0  0  0  0  0  0  0  0
   -1.0519   -1.9362    2.0611 H   0  0  0  0  0  0  0  0  0  0  0  0
   -1.2358   -0.1601    2.1859 H   0  0  0  0  0  0  0  0  0  0  0  0
   -3.6959   -0.3898    2.0407 H   0  0  0  0  0  0  0  0  0  0  0  0
   -3.5469   -2.1376    1.8350 H   0  0  0  0  0  0  0  0  0  0  0  0
   -3.0785   -1.3823    3.3706 H   0  0  0  0  0  0  0  0  0  0  0  0
  1  2  1  0  0  0  0
  2  3  1  0  0  0  0
  3  4  2  0  0  0  0
  4  5  2  0  0  0  0
  4  6  2  0  0  0  0
  6  7  1  0  0  0  0
  7  8  1  0  0  0  0
  4  9  1  0  0  0  0
  9 10  1  0  0  0  0
 10 11  1  0  0  0  0
 11 12  1  0  0  0  0
 12 13  2  0  0  0  0
 12 14  2  0  0  0  0
 14 15  1  0  0  0  0
 15 16  1  0  0  0  0
 12 17  2  0  0  0  0
 17 18  1  0  0  0  0
 18 19  1  0  0  0  0
  1 20  1  0  0  0  0
  1 21  1  0  0  0  0
  1 22  1  0  0  0  0
  2 23  1  0  0  0  0
  2 24  1  0  0  0  0
  7 25  1  0  0  0  0
  7 26  1  0  0  0  0
  8 27  1  0  0  0  0
  8 28  1  0  0  0  0
  8 29  1  0  0  0  0
 10 30  1  0  0  0  0
 10 31  1  0  0  0  0
 15 32  1  0  0  0  0
 15 33  1  0  0  0  0
 16 34  1  0  0  0  0
 16 35  1  0  0  0  0
 16 36  1  0  0  0  0
 18 37  1  0  0  0  0
 18 38  1  0  0  0  0
 19 39  1  0  0  0  0
 19 40  1  0  0  0  0
 19 41  1  0  0  0  0
M  END
