 xtb: 6.7.1 (edcfbbe)
          04092505213D

 41 40  0     0  0            999 V2000
    5.4272   -1.2340   -1.3470 C   0  0  0  0  0  0  0  0  0  0  0  0
    4.0674   -0.7370   -1.7930 C   0  0  0  0  0  0  0  0  0  0  0  0
    3.5600    0.2704   -0.8829 O   0  0  0  0  0  0  0  0  0  0  0  0
    2.5953   -0.0415    0.3290 P   0  0  0  0  0  0  0  0  0  0  0  0
    2.2804    1.5659    1.3959 S   0  0  0  0  0  0  0  0  0  0  0  0
    3.3075   -1.2530    1.0678 O   0  0  0  0  0  0  0  0  0  0  0  0
    2.9944   -1.6189    2.4257 C   0  0  0  0  0  0  0  0  0  0  0  0
    1.5366   -1.9902    2.5990 C   0  0  0  0  0  0  0  0  0  0  0  0
    0.9060   -0.9548   -0.6083 S   0  0  0  0  0  0  0  0  0  0  0  0
    0.1756    0.5883   -1.2140 C   0  0  0  0  0  0  0  0  0  0  0  0
   -0.9434    1.3569   -0.0192 S   0  0  0  0  0  0  0  0  0  0  0  0
   -2.7742    0.4318   -0.6450 P   0  0  0  0  0  0  0  0  0  0  0  0
   -2.7281   -0.3258   -2.4508 S   0  0  0  0  0  0  0  0  0  0  0  0
   -3.8987    1.5304   -0.5694 O   0  0  0  0  0  0  0  0  0  0  0  0
   -4.4883    2.0657    0.6403 C   0  0  0  0  0  0  0  0  0  0  0  0
   -3.4973    2.8582    1.4661 C   0  0  0  0  0  0  0  0  0  0  0  0
   -3.1943   -0.5222    0.5599 O   0  0  0  0  0  0  0  0  0  0  0  0
   -2.3692   -1.5544    1.1245 C   0  0  0  0  0  0  0  0  0  0  0  0
   -2.2108   -2.7422    0.1975 C   0  0  0  0  0  0  0  0  0  0  0  0
    5.8143   -1.9211   -2.0930 H   0  0  0  0  0  0  0  0  0  0  0  0
    6.1122   -0.3973   -1.2401 H   0  0  0  0  0  0  0  0  0  0  0  0
    5.3480   -1.7472   -0.3927 H   0  0  0  0  0  0  0  0  0  0  0  0
    3.3457   -1.5565   -1.8535 H   0  0  0  0  0  0  0  0  0  0  0  0
    4.1286   -0.2260   -2.7558 H   0  0  0  0  0  0  0  0  0  0  0  0
    3.6539   -2.4645    2.6255 H   0  0  0  0  0  0  0  0  0  0  0  0
    3.2558   -0.7782    3.0749 H   0  0  0  0  0  0  0  0  0  0  0  0
    0.9163   -1.1063    2.4538 H   0  0  0  0  0  0  0  0  0  0  0  0
    1.2492   -2.7490    1.8750 H   0  0  0  0  0  0  0  0  0  0  0  0
    1.3779   -2.3681    3.6037 H   0  0  0  0  0  0  0  0  0  0  0  0
   -0.3896    0.3472   -2.1175 H   0  0  0  0  0  0  0  0  0  0  0  0
    0.9688    1.3054   -1.4170 H   0  0  0  0  0  0  0  0  0  0  0  0
   -5.2923    2.6997    0.2634 H   0  0  0  0  0  0  0  0  0  0  0  0
   -4.9055    1.2366    1.2144 H   0  0  0  0  0  0  0  0  0  0  0  0
   -3.0365    3.6366    0.8631 H   0  0  0  0  0  0  0  0  0  0  0  0
   -4.0168    3.3154    2.3025 H   0  0  0  0  0  0  0  0  0  0  0  0
   -2.7121    2.2093    1.8512 H   0  0  0  0  0  0  0  0  0  0  0  0
   -1.3941   -1.1265    1.3765 H   0  0  0  0  0  0  0  0  0  0  0  0
   -2.8944   -1.8324    2.0401 H   0  0  0  0  0  0  0  0  0  0  0  0
   -3.1856   -3.1036   -0.1193 H   0  0  0  0  0  0  0  0  0  0  0  0
   -1.6399   -2.4632   -0.6863 H   0  0  0  0  0  0  0  0  0  0  0  0
   -1.6846   -3.5348    0.7192 H   0  0  0  0  0  0  0  0  0  0  0  0
  1  2  1  0  0  0  0
  2  3  1  0  0  0  0
  3  4  2  0  0  0  0
  4  5  2  0  0  0  0
  4  6  2  0  0  0  0
  6  7  1  0  0  0  0
  7  8  1  0  0  0  0
  4  9  1  0  0  0  0
  9 10  1  0  0  0  0
 10 11  1  0  0  0  0
 11 12  1  0  0  0  0
 12 13  2  0  0  0  0
 12 14  2  0  0  0  0
 14 15  1  0  0  0  0
 15 16  1  0  0  0  0
 12 17  2  0  0  0  0
 17 18  1  0  0  0  0
 18 19  1  0  0  0  0
  1 20  1  0  0  0  0
  1 21  1  0  0  0  0
  1 22  1  0  0  0  0
  2 23  1  0  0  0  0
  2 24  1  0  0  0  0
  7 25  1  0  0  0  0
  7 26  1  0  0  0  0
  8 27  1  0  0  0  0
  8 28  1  0  0  0  0
  8 29  1  0  0  0  0
 10 30  1  0  0  0  0
 10 31  1  0  0  0  0
 15 32  1  0  0  0  0
 15 33  1  0  0  0  0
 16 34  1  0  0  0  0
 16 35  1  0  0  0  0
 16 36  1  0  0  0  0
 18 37  1  0  0  0  0
 18 38  1  0  0  0  0
 19 39  1  0  0  0  0
 19 40  1  0  0  0  0
 19 41  1  0  0  0  0
M  END
