 xtb: 6.7.1 (edcfbbe)
          04092507313D

 38 37  0     0  0            999 V2000
    4.1383   -2.2602    1.1596 C   0  0  0  0  0  0  0  0  0  0  0  0
    2.6749   -2.1814    0.7721 C   0  0  0  0  0  0  0  0  0  0  0  0
    2.5296   -1.1490   -0.2222 O   0  0  0  0  0  0  0  0  0  0  0  0
    1.4630   -1.1536   -0.9890 C   0  0  0  0  0  0  0  0  0  0  0  0
    0.5597   -1.9636   -0.9119 O   0  0  0  0  0  0  0  0  0  0  0  0
    1.4832   -0.0205   -1.9941 C   0  0  0  0  0  0  0  0  0  0  0  0
    0.3279    0.9504   -1.7324 C   0  0  0  0  0  0  0  0  0  0  0  0
    0.3029    1.7035   -2.5252 H   0  0  0  0  0  0  0  0  0  0  0  0
    0.4515    1.6623   -0.3986 C   0  0  0  0  0  0  0  0  0  0  0  0
   -0.4912    1.7700    0.3666 O   0  0  0  0  0  0  0  0  0  0  0  0
    1.6468    2.1251   -0.1928 O   0  0  0  0  0  0  0  0  0  0  0  0
    1.9420    2.8341    1.0325 C   0  0  0  0  0  0  0  0  0  0  0  0
    2.7584    4.0665    0.6911 C   0  0  0  0  0  0  0  0  0  0  0  0
   -1.3136    0.1492   -1.8026 S   0  0  0  0  0  0  0  0  0  0  0  0
   -1.7731   -0.3564    0.2113 P   0  0  0  0  0  0  0  0  0  0  0  0
   -0.5586   -0.7826    1.7052 S   0  0  0  0  0  0  0  0  0  0  0  0
   -2.9822    0.6077    0.5853 O   0  0  0  0  0  0  0  0  0  0  0  0
   -2.9909    1.5527    1.6541 C   0  0  0  0  0  0  0  0  0  0  0  0
   -2.7433   -1.5949   -0.1049 O   0  0  0  0  0  0  0  0  0  0  0  0
   -2.2802   -2.8952   -0.4644 C   0  0  0  0  0  0  0  0  0  0  0  0
    4.2636   -3.0253    1.9182 H   0  0  0  0  0  0  0  0  0  0  0  0
    4.7422   -2.5112    0.2925 H   0  0  0  0  0  0  0  0  0  0  0  0
    4.4694   -1.3057    1.5566 H   0  0  0  0  0  0  0  0  0  0  0  0
    2.0381   -1.9209    1.6240 H   0  0  0  0  0  0  0  0  0  0  0  0
    2.3101   -3.1217    0.3467 H   0  0  0  0  0  0  0  0  0  0  0  0
    1.3543   -0.4468   -2.9892 H   0  0  0  0  0  0  0  0  0  0  0  0
    2.4315    0.5101   -1.9195 H   0  0  0  0  0  0  0  0  0  0  0  0
    1.0022    3.0858    1.5302 H   0  0  0  0  0  0  0  0  0  0  0  0
    2.5069    2.1416    1.6614 H   0  0  0  0  0  0  0  0  0  0  0  0
    3.6604    3.7786    0.1603 H   0  0  0  0  0  0  0  0  0  0  0  0
    2.1819    4.7440    0.0677 H   0  0  0  0  0  0  0  0  0  0  0  0
    3.0309    4.5754    1.6096 H   0  0  0  0  0  0  0  0  0  0  0  0
   -3.9920    1.5199    2.0784 H   0  0  0  0  0  0  0  0  0  0  0  0
   -2.7676    2.5420    1.2581 H   0  0  0  0  0  0  0  0  0  0  0  0
   -2.2485    1.2820    2.4075 H   0  0  0  0  0  0  0  0  0  0  0  0
   -1.5098   -3.2269    0.2334 H   0  0  0  0  0  0  0  0  0  0  0  0
   -1.8673   -2.8860   -1.4729 H   0  0  0  0  0  0  0  0  0  0  0  0
   -3.1536   -3.5400   -0.4081 H   0  0  0  0  0  0  0  0  0  0  0  0
  1  2  1  0  0  0  0
  2  3  1  0  0  0  0
  3  4  4  0  0  0  0
  4  5  2  0  0  0  0
  4  6  1  0  0  0  0
  6  7  1  0  0  0  0
  7  8  1  0  0  0  0
  7  9  1  0  0  0  0
  9 10  2  0  0  0  0
  9 11  4  0  0  0  0
 11 12  1  0  0  0  0
 12 13  1  0  0  0  0
  7 14  1  0  0  0  0
 14 15  1  0  0  0  0
 15 16  2  0  0  0  0
 15 17  1  0  0  0  0
 17 18  1  0  0  0  0
 15 19  1  0  0  0  0
 19 20  1  0  0  0  0
  1 21  1  0  0  0  0
  1 22  1  0  0  0  0
  1 23  1  0  0  0  0
  2 24  1  0  0  0  0
  2 25  1  0  0  0  0
  6 26  1  0  0  0  0
  6 27  1  0  0  0  0
 12 28  1  0  0  0  0
 12 29  1  0  0  0  0
 13 30  1  0  0  0  0
 13 31  1  0  0  0  0
 13 32  1  0  0  0  0
 18 33  1  0  0  0  0
 18 34  1  0  0  0  0
 18 35  1  0  0  0  0
 20 36  1  0  0  0  0
 20 37  1  0  0  0  0
 20 38  1  0  0  0  0
M  END
