 xtb: 6.7.1 (edcfbbe)
          04092505203D

 41 40  0     0  0            999 V2000
    3.7321    1.7187   -1.7529 C   0  0  0  0  0  0  0  0  0  0  0  0
    2.4135    1.0599   -2.0954 C   0  0  0  0  0  0  0  0  0  0  0  0
    2.2315   -0.1852   -1.3930 O   0  0  0  0  0  0  0  0  0  0  0  0
    2.1083   -0.2833    0.1812 P   0  0  0  0  0  0  0  0  0  0  0  0
    1.1517    1.1836    1.0798 S   0  0  0  0  0  0  0  0  0  0  0  0
    3.6225   -0.4215    0.6417 O   0  0  0  0  0  0  0  0  0  0  0  0
    4.0341   -0.2461    2.0072 C   0  0  0  0  0  0  0  0  0  0  0  0
    3.5003   -1.3434    2.9052 C   0  0  0  0  0  0  0  0  0  0  0  0
    1.4102   -2.2642    0.3216 S   0  0  0  0  0  0  0  0  0  0  0  0
   -0.2485   -2.1031   -0.3912 C   0  0  0  0  0  0  0  0  0  0  0  0
   -1.5092   -1.5140    0.7952 S   0  0  0  0  0  0  0  0  0  0  0  0
   -2.0864    0.2996   -0.1189 P   0  0  0  0  0  0  0  0  0  0  0  0
   -1.1336    0.8505   -1.7472 S   0  0  0  0  0  0  0  0  0  0  0  0
   -2.0578    1.2370    1.1496 O   0  0  0  0  0  0  0  0  0  0  0  0
   -2.0120    2.6753    1.0786 C   0  0  0  0  0  0  0  0  0  0  0  0
   -3.2286    3.2583    0.3918 C   0  0  0  0  0  0  0  0  0  0  0  0
   -3.6606    0.1656   -0.3370 O   0  0  0  0  0  0  0  0  0  0  0  0
   -4.2466   -0.3658   -1.5348 C   0  0  0  0  0  0  0  0  0  0  0  0
   -3.9512   -1.8413   -1.7157 C   0  0  0  0  0  0  0  0  0  0  0  0
    3.8728    2.5890   -2.3862 H   0  0  0  0  0  0  0  0  0  0  0  0
    3.7280    2.0358   -0.7106 H   0  0  0  0  0  0  0  0  0  0  0  0
    4.5502    1.0198   -1.9058 H   0  0  0  0  0  0  0  0  0  0  0  0
    2.3598    0.7718   -3.1461 H   0  0  0  0  0  0  0  0  0  0  0  0
    1.5717    1.7185   -1.8585 H   0  0  0  0  0  0  0  0  0  0  0  0
    5.1235   -0.2588    1.9565 H   0  0  0  0  0  0  0  0  0  0  0  0
    3.6868    0.7340    2.3506 H   0  0  0  0  0  0  0  0  0  0  0  0
    3.9229   -1.2347    3.8989 H   0  0  0  0  0  0  0  0  0  0  0  0
    2.4149   -1.2716    2.9736 H   0  0  0  0  0  0  0  0  0  0  0  0
    3.7597   -2.3198    2.5039 H   0  0  0  0  0  0  0  0  0  0  0  0
   -0.5299   -3.1077   -0.6948 H   0  0  0  0  0  0  0  0  0  0  0  0
   -0.2132   -1.4191   -1.2433 H   0  0  0  0  0  0  0  0  0  0  0  0
   -1.9476    2.9792    2.1244 H   0  0  0  0  0  0  0  0  0  0  0  0
   -1.0895    2.9632    0.5639 H   0  0  0  0  0  0  0  0  0  0  0  0
   -3.2411    2.9640   -0.6573 H   0  0  0  0  0  0  0  0  0  0  0  0
   -4.1360    2.8985    0.8699 H   0  0  0  0  0  0  0  0  0  0  0  0
   -3.1892    4.3413    0.4538 H   0  0  0  0  0  0  0  0  0  0  0  0
   -5.3141   -0.1822   -1.4067 H   0  0  0  0  0  0  0  0  0  0  0  0
   -3.8699    0.2081   -2.3880 H   0  0  0  0  0  0  0  0  0  0  0  0
   -4.2131   -2.3917   -0.8156 H   0  0  0  0  0  0  0  0  0  0  0  0
   -4.5269   -2.2221   -2.5532 H   0  0  0  0  0  0  0  0  0  0  0  0
   -2.8913   -1.9853   -1.9223 H   0  0  0  0  0  0  0  0  0  0  0  0
  1  2  1  0  0  0  0
  2  3  1  0  0  0  0
  3  4  2  0  0  0  0
  4  5  2  0  0  0  0
  4  6  2  0  0  0  0
  6  7  1  0  0  0  0
  7  8  1  0  0  0  0
  4  9  1  0  0  0  0
  9 10  1  0  0  0  0
 10 11  1  0  0  0  0
 11 12  1  0  0  0  0
 12 13  2  0  0  0  0
 12 14  2  0  0  0  0
 14 15  1  0  0  0  0
 15 16  1  0  0  0  0
 12 17  2  0  0  0  0
 17 18  1  0  0  0  0
 18 19  1  0  0  0  0
  1 20  1  0  0  0  0
  1 21  1  0  0  0  0
  1 22  1  0  0  0  0
  2 23  1  0  0  0  0
  2 24  1  0  0  0  0
  7 25  1  0  0  0  0
  7 26  1  0  0  0  0
  8 27  1  0  0  0  0
  8 28  1  0  0  0  0
  8 29  1  0  0  0  0
 10 30  1  0  0  0  0
 10 31  1  0  0  0  0
 15 32  1  0  0  0  0
 15 33  1  0  0  0  0
 16 34  1  0  0  0  0
 16 35  1  0  0  0  0
 16 36  1  0  0  0  0
 18 37  1  0  0  0  0
 18 38  1  0  0  0  0
 19 39  1  0  0  0  0
 19 40  1  0  0  0  0
 19 41  1  0  0  0  0
M  END
