 xtb: 6.7.1 (edcfbbe)
          04032519583D

 10  9  0     0  0            999 V2000
   -0.7030   -0.5889   -0.3042 C   0  0  0  0  0  0  0  0  0  0  0  0
    0.6949   -0.5835    0.3318 C   0  0  0  0  0  0  0  0  0  0  0  0
    1.5077    0.4755   -0.1306 O   0  0  0  0  0  0  0  0  0  0  0  0
   -1.5010    0.5018    0.1075 O   0  0  0  0  0  0  0  0  0  0  0  0
   -1.2305   -1.4872    0.0222 H   0  0  0  0  0  0  0  0  0  0  0  0
   -0.6064   -0.6075   -1.3952 H   0  0  0  0  0  0  0  0  0  0  0  0
    1.2099   -1.5034    0.0486 H   0  0  0  0  0  0  0  0  0  0  0  0
    0.5981   -0.5490    1.4224 H   0  0  0  0  0  0  0  0  0  0  0  0
    1.2221    1.3007    0.2848 H   0  0  0  0  0  0  0  0  0  0  0  0
   -1.2020    1.3031   -0.3438 H   0  0  0  0  0  0  0  0  0  0  0  0
  1  2  1  0  0  0  0
  2  3  1  0  0  0  0
  1  4  1  0  0  0  0
  1  5  1  0  0  0  0
  1  6  1  0  0  0  0
  2  7  1  0  0  0  0
  2  8  1  0  0  0  0
  3  9  1  0  0  0  0
  4 10  1  0  0  0  0
M  END
