 xtb: 6.7.1 (edcfbbe)
          04092505213D

 41 40  0     0  0            999 V2000
    3.4443    2.0096   -1.2088 C   0  0  0  0  0  0  0  0  0  0  0  0
    2.0319    1.6603   -0.7861 C   0  0  0  0  0  0  0  0  0  0  0  0
    1.8897    0.2392   -0.6491 O   0  0  0  0  0  0  0  0  0  0  0  0
    2.0921   -0.5756    0.7045 P   0  0  0  0  0  0  0  0  0  0  0  0
    2.8290    0.4624    2.1858 S   0  0  0  0  0  0  0  0  0  0  0  0
    3.0141   -1.7916    0.3066 O   0  0  0  0  0  0  0  0  0  0  0  0
    2.6138   -2.9496   -0.4641 C   0  0  0  0  0  0  0  0  0  0  0  0
    2.1995   -2.5951   -1.8761 C   0  0  0  0  0  0  0  0  0  0  0  0
    0.2180   -1.5156    1.0796 S   0  0  0  0  0  0  0  0  0  0  0  0
   -0.4763   -0.2183    2.1240 C   0  0  0  0  0  0  0  0  0  0  0  0
   -0.8414    1.3188    1.2254 S   0  0  0  0  0  0  0  0  0  0  0  0
   -2.0035    0.5346   -0.3698 P   0  0  0  0  0  0  0  0  0  0  0  0
   -1.1254   -0.0690   -2.0196 S   0  0  0  0  0  0  0  0  0  0  0  0
   -3.0815    1.6736   -0.6524 O   0  0  0  0  0  0  0  0  0  0  0  0
   -2.8475    2.7385   -1.5861 C   0  0  0  0  0  0  0  0  0  0  0  0
   -1.8680    3.7535   -1.0323 C   0  0  0  0  0  0  0  0  0  0  0  0
   -2.8612   -0.5146    0.4434 O   0  0  0  0  0  0  0  0  0  0  0  0
   -3.6704   -1.5190   -0.2159 C   0  0  0  0  0  0  0  0  0  0  0  0
   -2.9061   -2.8203   -0.3534 C   0  0  0  0  0  0  0  0  0  0  0  0
    3.5200    3.0825   -1.3531 H   0  0  0  0  0  0  0  0  0  0  0  0
    4.1452    1.7033   -0.4342 H   0  0  0  0  0  0  0  0  0  0  0  0
    3.6954    1.5006   -2.1351 H   0  0  0  0  0  0  0  0  0  0  0  0
    1.3028    1.9368   -1.5515 H   0  0  0  0  0  0  0  0  0  0  0  0
    1.7809    2.1465    0.1623 H   0  0  0  0  0  0  0  0  0  0  0  0
    3.5065   -3.5770   -0.4515 H   0  0  0  0  0  0  0  0  0  0  0  0
    1.8007   -3.4511    0.0680 H   0  0  0  0  0  0  0  0  0  0  0  0
    1.3133   -1.9625   -1.8698 H   0  0  0  0  0  0  0  0  0  0  0  0
    3.0003   -2.0629   -2.3823 H   0  0  0  0  0  0  0  0  0  0  0  0
    1.9752   -3.5074   -2.4199 H   0  0  0  0  0  0  0  0  0  0  0  0
    0.2470    0.0567    2.8936 H   0  0  0  0  0  0  0  0  0  0  0  0
   -1.3913   -0.6129    2.5572 H   0  0  0  0  0  0  0  0  0  0  0  0
   -2.4735    2.3057   -2.5205 H   0  0  0  0  0  0  0  0  0  0  0  0
   -3.8338    3.1750   -1.7483 H   0  0  0  0  0  0  0  0  0  0  0  0
   -2.2255    4.1448   -0.0836 H   0  0  0  0  0  0  0  0  0  0  0  0
   -0.8993    3.2807   -0.8669 H   0  0  0  0  0  0  0  0  0  0  0  0
   -1.7492    4.5681   -1.7392 H   0  0  0  0  0  0  0  0  0  0  0  0
   -4.5402   -1.6305    0.4334 H   0  0  0  0  0  0  0  0  0  0  0  0
   -3.9860   -1.1429   -1.1925 H   0  0  0  0  0  0  0  0  0  0  0  0
   -2.0582   -2.6897   -1.0218 H   0  0  0  0  0  0  0  0  0  0  0  0
   -2.5346   -3.1438    0.6152 H   0  0  0  0  0  0  0  0  0  0  0  0
   -3.5655   -3.5796   -0.7611 H   0  0  0  0  0  0  0  0  0  0  0  0
  1  2  1  0  0  0  0
  2  3  1  0  0  0  0
  3  4  2  0  0  0  0
  4  5  2  0  0  0  0
  4  6  2  0  0  0  0
  6  7  1  0  0  0  0
  7  8  1  0  0  0  0
  4  9  1  0  0  0  0
  9 10  1  0  0  0  0
 10 11  1  0  0  0  0
 11 12  1  0  0  0  0
 12 13  2  0  0  0  0
 12 14  2  0  0  0  0
 14 15  1  0  0  0  0
 15 16  1  0  0  0  0
 12 17  2  0  0  0  0
 17 18  1  0  0  0  0
 18 19  1  0  0  0  0
  1 20  1  0  0  0  0
  1 21  1  0  0  0  0
  1 22  1  0  0  0  0
  2 23  1  0  0  0  0
  2 24  1  0  0  0  0
  7 25  1  0  0  0  0
  7 26  1  0  0  0  0
  8 27  1  0  0  0  0
  8 28  1  0  0  0  0
  8 29  1  0  0  0  0
 10 30  1  0  0  0  0
 10 31  1  0  0  0  0
 15 32  1  0  0  0  0
 15 33  1  0  0  0  0
 16 34  1  0  0  0  0
 16 35  1  0  0  0  0
 16 36  1  0  0  0  0
 18 37  1  0  0  0  0
 18 38  1  0  0  0  0
 19 39  1  0  0  0  0
 19 40  1  0  0  0  0
 19 41  1  0  0  0  0
M  END
