 xtb: 6.7.1 (edcfbbe)
          04092507313D

 38 37  0     0  0            999 V2000
    4.4849   -3.2461   -1.5699 C   0  0  0  0  0  0  0  0  0  0  0  0
    3.0471   -2.9093   -1.9330 C   0  0  0  0  0  0  0  0  0  0  0  0
    2.6429   -1.6638   -1.3337 O   0  0  0  0  0  0  0  0  0  0  0  0
    2.1587   -1.6847   -0.1088 C   0  0  0  0  0  0  0  0  0  0  0  0
    2.0270   -2.6804    0.5660 O   0  0  0  0  0  0  0  0  0  0  0  0
    1.7756   -0.2933    0.3660 C   0  0  0  0  0  0  0  0  0  0  0  0
    0.9785    0.4512   -0.7059 C   0  0  0  0  0  0  0  0  0  0  0  0
    1.6045    0.6298   -1.5827 H   0  0  0  0  0  0  0  0  0  0  0  0
    0.4451    1.7605   -0.1658 C   0  0  0  0  0  0  0  0  0  0  0  0
   -0.7492    1.9747   -0.0505 O   0  0  0  0  0  0  0  0  0  0  0  0
    1.3824    2.5916    0.1690 O   0  0  0  0  0  0  0  0  0  0  0  0
    0.9926    3.8569    0.7556 C   0  0  0  0  0  0  0  0  0  0  0  0
    2.2572    4.6074    1.1191 C   0  0  0  0  0  0  0  0  0  0  0  0
   -0.4459   -0.5195   -1.3152 S   0  0  0  0  0  0  0  0  0  0  0  0
   -1.8570   -0.2038    0.2251 P   0  0  0  0  0  0  0  0  0  0  0  0
   -1.4241    0.1081    2.1238 S   0  0  0  0  0  0  0  0  0  0  0  0
   -3.1259    0.5991   -0.3222 O   0  0  0  0  0  0  0  0  0  0  0  0
   -3.5036    1.9288    0.0341 C   0  0  0  0  0  0  0  0  0  0  0  0
   -2.4204   -1.6945    0.0029 O   0  0  0  0  0  0  0  0  0  0  0  0
   -3.5065   -2.2049    0.7790 C   0  0  0  0  0  0  0  0  0  0  0  0
    4.7829   -4.1510   -2.0890 H   0  0  0  0  0  0  0  0  0  0  0  0
    5.1445   -2.4328   -1.8590 H   0  0  0  0  0  0  0  0  0  0  0  0
    4.5705   -3.4104   -0.4982 H   0  0  0  0  0  0  0  0  0  0  0  0
    2.3660   -3.6953   -1.5952 H   0  0  0  0  0  0  0  0  0  0  0  0
    2.9333   -2.7438   -3.0042 H   0  0  0  0  0  0  0  0  0  0  0  0
    2.6863    0.2676    0.5848 H   0  0  0  0  0  0  0  0  0  0  0  0
    1.1957   -0.4017    1.2855 H   0  0  0  0  0  0  0  0  0  0  0  0
    0.3915    4.4013    0.0221 H   0  0  0  0  0  0  0  0  0  0  0  0
    0.3709    3.6480    1.6313 H   0  0  0  0  0  0  0  0  0  0  0  0
    2.8320    4.0437    1.8473 H   0  0  0  0  0  0  0  0  0  0  0  0
    2.8655    4.7637    0.2336 H   0  0  0  0  0  0  0  0  0  0  0  0
    1.9901    5.5688    1.5445 H   0  0  0  0  0  0  0  0  0  0  0  0
   -3.0734    2.6314   -0.6761 H   0  0  0  0  0  0  0  0  0  0  0  0
   -3.1534    2.1614    1.0406 H   0  0  0  0  0  0  0  0  0  0  0  0
   -4.5905    1.9493   -0.0079 H   0  0  0  0  0  0  0  0  0  0  0  0
   -3.3455   -1.9884    1.8376 H   0  0  0  0  0  0  0  0  0  0  0  0
   -3.5106   -3.2787    0.6099 H   0  0  0  0  0  0  0  0  0  0  0  0
   -4.4442   -1.7593    0.4482 H   0  0  0  0  0  0  0  0  0  0  0  0
  1  2  1  0  0  0  0
  2  3  1  0  0  0  0
  3  4  1  0  0  0  0
  4  5  2  0  0  0  0
  4  6  1  0  0  0  0
  6  7  1  0  0  0  0
  7  8  1  0  0  0  0
  7  9  1  0  0  0  0
  9 10  2  0  0  0  0
  9 11  4  0  0  0  0
 11 12  1  0  0  0  0
 12 13  1  0  0  0  0
  7 14  1  0  0  0  0
 14 15  1  0  0  0  0
 15 16  2  0  0  0  0
 15 17  2  0  0  0  0
 17 18  1  0  0  0  0
 15 19  1  0  0  0  0
 19 20  1  0  0  0  0
  1 21  1  0  0  0  0
  1 22  1  0  0  0  0
  1 23  1  0  0  0  0
  2 24  1  0  0  0  0
  2 25  1  0  0  0  0
  6 26  1  0  0  0  0
  6 27  1  0  0  0  0
 12 28  1  0  0  0  0
 12 29  1  0  0  0  0
 13 30  1  0  0  0  0
 13 31  1  0  0  0  0
 13 32  1  0  0  0  0
 18 33  1  0  0  0  0
 18 34  1  0  0  0  0
 18 35  1  0  0  0  0
 20 36  1  0  0  0  0
 20 37  1  0  0  0  0
 20 38  1  0  0  0  0
M  END
