 xtb: 6.7.1 (edcfbbe)
          04092505213D

 41 40  0     0  0            999 V2000
    4.1184    2.4786   -0.5204 C   0  0  0  0  0  0  0  0  0  0  0  0
    4.6859    1.0753   -0.6031 C   0  0  0  0  0  0  0  0  0  0  0  0
    3.6979    0.1177   -1.0227 O   0  0  0  0  0  0  0  0  0  0  0  0
    2.5128   -0.3249   -0.0752 P   0  0  0  0  0  0  0  0  0  0  0  0
    2.9766   -0.4105    1.8329 S   0  0  0  0  0  0  0  0  0  0  0  0
    2.2221   -1.6792   -0.8423 O   0  0  0  0  0  0  0  0  0  0  0  0
    1.0414   -2.4849   -0.7119 C   0  0  0  0  0  0  0  0  0  0  0  0
    0.9513   -3.1666    0.6396 C   0  0  0  0  0  0  0  0  0  0  0  0
    0.9002    0.9824   -0.5662 S   0  0  0  0  0  0  0  0  0  0  0  0
    0.1696    1.1780    1.0807 C   0  0  0  0  0  0  0  0  0  0  0  0
   -1.0197   -0.1231    1.5227 S   0  0  0  0  0  0  0  0  0  0  0  0
   -2.4349    0.1593   -0.0265 P   0  0  0  0  0  0  0  0  0  0  0  0
   -2.1216   -0.6233   -1.8038 S   0  0  0  0  0  0  0  0  0  0  0  0
   -2.6017    1.7301    0.0309 O   0  0  0  0  0  0  0  0  0  0  0  0
   -2.8842    2.5566   -1.1206 C   0  0  0  0  0  0  0  0  0  0  0  0
   -1.7600    3.5541   -1.3169 C   0  0  0  0  0  0  0  0  0  0  0  0
   -3.8005   -0.3233    0.6320 O   0  0  0  0  0  0  0  0  0  0  0  0
   -4.2504   -1.6857    0.5528 C   0  0  0  0  0  0  0  0  0  0  0  0
   -3.3427   -2.6222    1.3240 C   0  0  0  0  0  0  0  0  0  0  0  0
    3.3988    2.5421    0.2945 H   0  0  0  0  0  0  0  0  0  0  0  0
    4.9246    3.1807   -0.3334 H   0  0  0  0  0  0  0  0  0  0  0  0
    3.6211    2.7387   -1.4515 H   0  0  0  0  0  0  0  0  0  0  0  0
    5.0860    0.7630    0.3672 H   0  0  0  0  0  0  0  0  0  0  0  0
    5.4630    0.9994   -1.3648 H   0  0  0  0  0  0  0  0  0  0  0  0
    0.1588   -1.8653   -0.9054 H   0  0  0  0  0  0  0  0  0  0  0  0
    1.1391   -3.2151   -1.5176 H   0  0  0  0  0  0  0  0  0  0  0  0
    0.7891   -2.4367    1.4312 H   0  0  0  0  0  0  0  0  0  0  0  0
    0.1223   -3.8674    0.6315 H   0  0  0  0  0  0  0  0  0  0  0  0
    1.8731   -3.7049    0.8457 H   0  0  0  0  0  0  0  0  0  0  0  0
   -0.3294    2.1425    1.0997 H   0  0  0  0  0  0  0  0  0  0  0  0
    0.9592    1.1169    1.8330 H   0  0  0  0  0  0  0  0  0  0  0  0
   -2.9971    1.9158   -2.0011 H   0  0  0  0  0  0  0  0  0  0  0  0
   -3.8312    3.0548   -0.9067 H   0  0  0  0  0  0  0  0  0  0  0  0
   -0.8266    3.0316   -1.5203 H   0  0  0  0  0  0  0  0  0  0  0  0
   -1.9984    4.1943   -2.1600 H   0  0  0  0  0  0  0  0  0  0  0  0
   -1.6393    4.1656   -0.4271 H   0  0  0  0  0  0  0  0  0  0  0  0
   -5.2564   -1.6569    0.9730 H   0  0  0  0  0  0  0  0  0  0  0  0
   -4.2943   -1.9743   -0.5026 H   0  0  0  0  0  0  0  0  0  0  0  0
   -3.2378   -2.2873    2.3528 H   0  0  0  0  0  0  0  0  0  0  0  0
   -3.7583   -3.6246    1.3095 H   0  0  0  0  0  0  0  0  0  0  0  0
   -2.3558   -2.6400    0.8611 H   0  0  0  0  0  0  0  0  0  0  0  0
  1  2  1  0  0  0  0
  2  3  1  0  0  0  0
  3  4  2  0  0  0  0
  4  5  2  0  0  0  0
  4  6  2  0  0  0  0
  6  7  1  0  0  0  0
  7  8  1  0  0  0  0
  4  9  1  0  0  0  0
  9 10  1  0  0  0  0
 10 11  1  0  0  0  0
 11 12  1  0  0  0  0
 12 13  2  0  0  0  0
 12 14  2  0  0  0  0
 14 15  1  0  0  0  0
 15 16  1  0  0  0  0
 12 17  2  0  0  0  0
 17 18  1  0  0  0  0
 18 19  1  0  0  0  0
  1 20  1  0  0  0  0
  1 21  1  0  0  0  0
  1 22  1  0  0  0  0
  2 23  1  0  0  0  0
  2 24  1  0  0  0  0
  7 25  1  0  0  0  0
  7 26  1  0  0  0  0
  8 27  1  0  0  0  0
  8 28  1  0  0  0  0
  8 29  1  0  0  0  0
 10 30  1  0  0  0  0
 10 31  1  0  0  0  0
 15 32  1  0  0  0  0
 15 33  1  0  0  0  0
 16 34  1  0  0  0  0
 16 35  1  0  0  0  0
 16 36  1  0  0  0  0
 18 37  1  0  0  0  0
 18 38  1  0  0  0  0
 19 39  1  0  0  0  0
 19 40  1  0  0  0  0
 19 41  1  0  0  0  0
M  END
