 xtb: 6.7.1 (edcfbbe)
          04092514003D

 41 40  0     0  0            999 V2000
    2.0777   -2.0947    2.8612 C   0  0  0  0  0  0  0  0  0  0  0  0
    0.9763   -1.8292    1.8564 C   0  0  0  0  0  0  0  0  0  0  0  0
    1.0861   -0.5023    1.3043 O   0  0  0  0  0  0  0  0  0  0  0  0
    2.0796   -0.1340    0.1327 P   0  0  0  0  0  0  0  0  0  0  0  0
    2.7751   -1.6282   -0.9329 S   0  0  0  0  0  0  0  0  0  0  0  0
    3.1411    0.7447    0.9222 O   0  0  0  0  0  0  0  0  0  0  0  0
    4.2615    1.3773    0.2679 C   0  0  0  0  0  0  0  0  0  0  0  0
    5.5240    0.5555    0.4458 C   0  0  0  0  0  0  0  0  0  0  0  0
    0.9841    1.3371   -0.9358 S   0  0  0  0  0  0  0  0  0  0  0  0
    0.1765    0.2143   -2.1088 C   0  0  0  0  0  0  0  0  0  0  0  0
   -0.9039   -1.0068   -1.3212 S   0  0  0  0  0  0  0  0  0  0  0  0
   -2.3328    0.3606   -0.5490 P   0  0  0  0  0  0  0  0  0  0  0  0
   -2.7844    1.8771   -1.6911 S   0  0  0  0  0  0  0  0  0  0  0  0
   -1.6951    0.7096    0.8746 O   0  0  0  0  0  0  0  0  0  0  0  0
   -1.6074    2.0430    1.4064 C   0  0  0  0  0  0  0  0  0  0  0  0
   -2.8690    2.4018    2.1656 C   0  0  0  0  0  0  0  0  0  0  0  0
   -3.5986   -0.5323   -0.2262 O   0  0  0  0  0  0  0  0  0  0  0  0
   -3.6413   -1.5591    0.7968 C   0  0  0  0  0  0  0  0  0  0  0  0
   -3.4145   -2.9354    0.2048 C   0  0  0  0  0  0  0  0  0  0  0  0
    1.9247   -3.0699    3.3128 H   0  0  0  0  0  0  0  0  0  0  0  0
    3.0444   -2.0823    2.3598 H   0  0  0  0  0  0  0  0  0  0  0  0
    2.0736   -1.3319    3.6350 H   0  0  0  0  0  0  0  0  0  0  0  0
   -0.0104   -1.8445    2.3218 H   0  0  0  0  0  0  0  0  0  0  0  0
    1.0105   -2.5562    1.0380 H   0  0  0  0  0  0  0  0  0  0  0  0
    4.0319    1.5180   -0.7924 H   0  0  0  0  0  0  0  0  0  0  0  0
    4.3519    2.3525    0.7501 H   0  0  0  0  0  0  0  0  0  0  0  0
    6.3618    1.0922    0.0118 H   0  0  0  0  0  0  0  0  0  0  0  0
    5.7147    0.3879    1.5021 H   0  0  0  0  0  0  0  0  0  0  0  0
    5.4230   -0.4064   -0.0519 H   0  0  0  0  0  0  0  0  0  0  0  0
    0.9316   -0.3528   -2.6525 H   0  0  0  0  0  0  0  0  0  0  0  0
   -0.4099    0.8432   -2.7785 H   0  0  0  0  0  0  0  0  0  0  0  0
   -0.7301    2.0199    2.0555 H   0  0  0  0  0  0  0  0  0  0  0  0
   -1.4368    2.7443    0.5833 H   0  0  0  0  0  0  0  0  0  0  0  0
   -3.0604    1.6742    2.9498 H   0  0  0  0  0  0  0  0  0  0  0  0
   -2.7511    3.3853    2.6094 H   0  0  0  0  0  0  0  0  0  0  0  0
   -3.7176    2.4201    1.4831 H   0  0  0  0  0  0  0  0  0  0  0  0
   -2.8971   -1.3262    1.5613 H   0  0  0  0  0  0  0  0  0  0  0  0
   -4.6445   -1.4725    1.2178 H   0  0  0  0  0  0  0  0  0  0  0  0
   -2.4105   -3.0179   -0.2069 H   0  0  0  0  0  0  0  0  0  0  0  0
   -3.5423   -3.6796    0.9851 H   0  0  0  0  0  0  0  0  0  0  0  0
   -4.1323   -3.1230   -0.5888 H   0  0  0  0  0  0  0  0  0  0  0  0
  1  2  1  0  0  0  0
  2  3  1  0  0  0  0
  3  4  2  0  0  0  0
  4  5  2  0  0  0  0
  4  6  2  0  0  0  0
  6  7  1  0  0  0  0
  7  8  1  0  0  0  0
  4  9  1  0  0  0  0
  9 10  1  0  0  0  0
 10 11  1  0  0  0  0
 11 12  1  0  0  0  0
 12 13  2  0  0  0  0
 12 14  1  0  0  0  0
 14 15  1  0  0  0  0
 15 16  1  0  0  0  0
 12 17  2  0  0  0  0
 17 18  1  0  0  0  0
 18 19  1  0  0  0  0
  1 20  1  0  0  0  0
  1 21  1  0  0  0  0
  1 22  1  0  0  0  0
  2 23  1  0  0  0  0
  2 24  1  0  0  0  0
  7 25  1  0  0  0  0
  7 26  1  0  0  0  0
  8 27  1  0  0  0  0
  8 28  1  0  0  0  0
  8 29  1  0  0  0  0
 10 30  1  0  0  0  0
 10 31  1  0  0  0  0
 15 32  1  0  0  0  0
 15 33  1  0  0  0  0
 16 34  1  0  0  0  0
 16 35  1  0  0  0  0
 16 36  1  0  0  0  0
 18 37  1  0  0  0  0
 18 38  1  0  0  0  0
 19 39  1  0  0  0  0
 19 40  1  0  0  0  0
 19 41  1  0  0  0  0
M  END
