 xtb: 6.7.1 (edcfbbe)
          04092514003D

 41 40  0     0  0            999 V2000
    5.8419   -1.1518   -0.1440 C   0  0  0  0  0  0  0  0  0  0  0  0
    4.5471   -1.4634    0.5819 C   0  0  0  0  0  0  0  0  0  0  0  0
    3.7310   -0.2774    0.6872 O   0  0  0  0  0  0  0  0  0  0  0  0
    2.4348   -0.0494   -0.2096 P   0  0  0  0  0  0  0  0  0  0  0  0
    2.6813   -0.3517   -2.1350 S   0  0  0  0  0  0  0  0  0  0  0  0
    2.0203    1.4083    0.2403 O   0  0  0  0  0  0  0  0  0  0  0  0
    2.4581    2.5987   -0.4561 C   0  0  0  0  0  0  0  0  0  0  0  0
    1.3318    3.1558   -1.3032 C   0  0  0  0  0  0  0  0  0  0  0  0
    0.9736   -1.2251    0.7521 S   0  0  0  0  0  0  0  0  0  0  0  0
   -0.2197   -1.2983   -0.6130 C   0  0  0  0  0  0  0  0  0  0  0  0
   -1.0866    0.2686   -0.9211 S   0  0  0  0  0  0  0  0  0  0  0  0
   -2.7283   -0.0029    0.4095 P   0  0  0  0  0  0  0  0  0  0  0  0
   -4.0540    1.4360    0.4158 S   0  0  0  0  0  0  0  0  0  0  0  0
   -2.0703   -0.3732    1.8070 O   0  0  0  0  0  0  0  0  0  0  0  0
   -1.8900    0.6060    2.8441 C   0  0  0  0  0  0  0  0  0  0  0  0
   -0.8005    1.6046    2.5076 C   0  0  0  0  0  0  0  0  0  0  0  0
   -3.2757   -1.4608    0.0852 O   0  0  0  0  0  0  0  0  0  0  0  0
   -4.3734   -1.6835   -0.8179 C   0  0  0  0  0  0  0  0  0  0  0  0
   -3.9537   -1.5450   -2.2681 C   0  0  0  0  0  0  0  0  0  0  0  0
    6.3640   -0.3400    0.3545 H   0  0  0  0  0  0  0  0  0  0  0  0
    6.4713   -2.0361   -0.1453 H   0  0  0  0  0  0  0  0  0  0  0  0
    5.6362   -0.8613   -1.1720 H   0  0  0  0  0  0  0  0  0  0  0  0
    4.7331   -1.7741    1.6116 H   0  0  0  0  0  0  0  0  0  0  0  0
    3.9876   -2.2449    0.0603 H   0  0  0  0  0  0  0  0  0  0  0  0
    2.7490    3.2946    0.3323 H   0  0  0  0  0  0  0  0  0  0  0  0
    3.3276    2.3584   -1.0741 H   0  0  0  0  0  0  0  0  0  0  0  0
    0.4547    3.3417   -0.6895 H   0  0  0  0  0  0  0  0  0  0  0  0
    1.6539    4.0859   -1.7604 H   0  0  0  0  0  0  0  0  0  0  0  0
    1.0622    2.4481   -2.0847 H   0  0  0  0  0  0  0  0  0  0  0  0
   -0.9410   -2.0692   -0.3535 H   0  0  0  0  0  0  0  0  0  0  0  0
    0.3131   -1.5359   -1.5341 H   0  0  0  0  0  0  0  0  0  0  0  0
   -2.8424    1.1220    3.0051 H   0  0  0  0  0  0  0  0  0  0  0  0
   -1.6350    0.0129    3.7233 H   0  0  0  0  0  0  0  0  0  0  0  0
   -1.0894    2.1860    1.6318 H   0  0  0  0  0  0  0  0  0  0  0  0
   -0.6598    2.2783    3.3469 H   0  0  0  0  0  0  0  0  0  0  0  0
    0.1371    1.0949    2.2982 H   0  0  0  0  0  0  0  0  0  0  0  0
   -4.7002   -2.6992   -0.5892 H   0  0  0  0  0  0  0  0  0  0  0  0
   -5.1738   -0.9757   -0.5789 H   0  0  0  0  0  0  0  0  0  0  0  0
   -4.7850   -1.8238   -2.9080 H   0  0  0  0  0  0  0  0  0  0  0  0
   -3.6747   -0.5137   -2.4808 H   0  0  0  0  0  0  0  0  0  0  0  0
   -3.1064   -2.1912   -2.4830 H   0  0  0  0  0  0  0  0  0  0  0  0
  1  2  1  0  0  0  0
  2  3  1  0  0  0  0
  3  4  2  0  0  0  0
  4  5  2  0  0  0  0
  4  6  2  0  0  0  0
  6  7  1  0  0  0  0
  7  8  1  0  0  0  0
  4  9  1  0  0  0  0
  9 10  1  0  0  0  0
 10 11  1  0  0  0  0
 11 12  1  0  0  0  0
 12 13  2  0  0  0  0
 12 14  2  0  0  0  0
 14 15  1  0  0  0  0
 15 16  1  0  0  0  0
 12 17  2  0  0  0  0
 17 18  1  0  0  0  0
 18 19  1  0  0  0  0
  1 20  1  0  0  0  0
  1 21  1  0  0  0  0
  1 22  1  0  0  0  0
  2 23  1  0  0  0  0
  2 24  1  0  0  0  0
  7 25  1  0  0  0  0
  7 26  1  0  0  0  0
  8 27  1  0  0  0  0
  8 28  1  0  0  0  0
  8 29  1  0  0  0  0
 10 30  1  0  0  0  0
 10 31  1  0  0  0  0
 15 32  1  0  0  0  0
 15 33  1  0  0  0  0
 16 34  1  0  0  0  0
 16 35  1  0  0  0  0
 16 36  1  0  0  0  0
 18 37  1  0  0  0  0
 18 38  1  0  0  0  0
 19 39  1  0  0  0  0
 19 40  1  0  0  0  0
 19 41  1  0  0  0  0
M  END
