 xtb: 6.7.1 (edcfbbe)
          04092505213D

 41 40  0     0  0            999 V2000
    4.5119   -2.7223   -0.7654 C   0  0  0  0  0  0  0  0  0  0  0  0
    3.8389   -1.7414   -1.7029 C   0  0  0  0  0  0  0  0  0  0  0  0
    3.8664   -0.3945   -1.1654 O   0  0  0  0  0  0  0  0  0  0  0  0
    2.7529    0.2252   -0.2472 P   0  0  0  0  0  0  0  0  0  0  0  0
    3.0627    2.1188    0.1240 S   0  0  0  0  0  0  0  0  0  0  0  0
    2.7970   -0.7224    1.0332 O   0  0  0  0  0  0  0  0  0  0  0  0
    2.1116   -0.4269    2.2650 C   0  0  0  0  0  0  0  0  0  0  0  0
    0.9666   -1.3977    2.4783 C   0  0  0  0  0  0  0  0  0  0  0  0
    0.9309   -0.2322   -1.2860 S   0  0  0  0  0  0  0  0  0  0  0  0
    0.0708    1.3297   -0.9948 C   0  0  0  0  0  0  0  0  0  0  0  0
   -0.7572    1.3942    0.6137 S   0  0  0  0  0  0  0  0  0  0  0  0
   -2.3743    0.1422    0.0674 P   0  0  0  0  0  0  0  0  0  0  0  0
   -3.1163    0.4132   -1.7342 S   0  0  0  0  0  0  0  0  0  0  0  0
   -3.3666    0.2422    1.3013 O   0  0  0  0  0  0  0  0  0  0  0  0
   -3.8475    1.4621    1.8940 C   0  0  0  0  0  0  0  0  0  0  0  0
   -4.4566    2.4093    0.8810 C   0  0  0  0  0  0  0  0  0  0  0  0
   -1.7554   -1.2992    0.2934 O   0  0  0  0  0  0  0  0  0  0  0  0
   -2.2301   -2.4635   -0.4091 C   0  0  0  0  0  0  0  0  0  0  0  0
   -3.5726   -2.9099    0.1296 C   0  0  0  0  0  0  0  0  0  0  0  0
    4.5403   -3.6993   -1.2377 H   0  0  0  0  0  0  0  0  0  0  0  0
    5.5266   -2.3966   -0.5535 H   0  0  0  0  0  0  0  0  0  0  0  0
    3.9640   -2.7906    0.1701 H   0  0  0  0  0  0  0  0  0  0  0  0
    2.7997   -2.0216   -1.8961 H   0  0  0  0  0  0  0  0  0  0  0  0
    4.3790   -1.6586   -2.6476 H   0  0  0  0  0  0  0  0  0  0  0  0
    2.8674   -0.5331    3.0460 H   0  0  0  0  0  0  0  0  0  0  0  0
    1.7618    0.6107    2.2462 H   0  0  0  0  0  0  0  0  0  0  0  0
    0.2192   -1.2927    1.6957 H   0  0  0  0  0  0  0  0  0  0  0  0
    1.3376   -2.4186    2.4740 H   0  0  0  0  0  0  0  0  0  0  0  0
    0.5006   -1.1890    3.4359 H   0  0  0  0  0  0  0  0  0  0  0  0
   -0.6750    1.4323   -1.7841 H   0  0  0  0  0  0  0  0  0  0  0  0
    0.7917    2.1479   -1.0120 H   0  0  0  0  0  0  0  0  0  0  0  0
   -4.5900    1.1203    2.6174 H   0  0  0  0  0  0  0  0  0  0  0  0
   -3.0127    1.9386    2.4157 H   0  0  0  0  0  0  0  0  0  0  0  0
   -5.2395    1.9097    0.3151 H   0  0  0  0  0  0  0  0  0  0  0  0
   -4.8777    3.2668    1.3961 H   0  0  0  0  0  0  0  0  0  0  0  0
   -3.6946    2.7556    0.1836 H   0  0  0  0  0  0  0  0  0  0  0  0
   -2.2963   -2.2263   -1.4760 H   0  0  0  0  0  0  0  0  0  0  0  0
   -1.4526   -3.2102   -0.2448 H   0  0  0  0  0  0  0  0  0  0  0  0
   -3.5074   -3.0893    1.1992 H   0  0  0  0  0  0  0  0  0  0  0  0
   -4.3138   -2.1316   -0.0505 H   0  0  0  0  0  0  0  0  0  0  0  0
   -3.8826   -3.8195   -0.3748 H   0  0  0  0  0  0  0  0  0  0  0  0
  1  2  1  0  0  0  0
  2  3  1  0  0  0  0
  3  4  2  0  0  0  0
  4  5  2  0  0  0  0
  4  6  2  0  0  0  0
  6  7  1  0  0  0  0
  7  8  1  0  0  0  0
  4  9  1  0  0  0  0
  9 10  1  0  0  0  0
 10 11  1  0  0  0  0
 11 12  1  0  0  0  0
 12 13  2  0  0  0  0
 12 14  2  0  0  0  0
 14 15  1  0  0  0  0
 15 16  1  0  0  0  0
 12 17  2  0  0  0  0
 17 18  1  0  0  0  0
 18 19  1  0  0  0  0
  1 20  1  0  0  0  0
  1 21  1  0  0  0  0
  1 22  1  0  0  0  0
  2 23  1  0  0  0  0
  2 24  1  0  0  0  0
  7 25  1  0  0  0  0
  7 26  1  0  0  0  0
  8 27  1  0  0  0  0
  8 28  1  0  0  0  0
  8 29  1  0  0  0  0
 10 30  1  0  0  0  0
 10 31  1  0  0  0  0
 15 32  1  0  0  0  0
 15 33  1  0  0  0  0
 16 34  1  0  0  0  0
 16 35  1  0  0  0  0
 16 36  1  0  0  0  0
 18 37  1  0  0  0  0
 18 38  1  0  0  0  0
 19 39  1  0  0  0  0
 19 40  1  0  0  0  0
 19 41  1  0  0  0  0
M  END
