 xtb: 6.7.1 (edcfbbe)
          04092505203D

 41 40  0     0  0            999 V2000
    3.6139    1.6617   -1.3250 C   0  0  0  0  0  0  0  0  0  0  0  0
    2.1953    1.7517   -0.8025 C   0  0  0  0  0  0  0  0  0  0  0  0
    1.6652    0.4495   -0.5090 O   0  0  0  0  0  0  0  0  0  0  0  0
    2.1465   -0.4145    0.7445 P   0  0  0  0  0  0  0  0  0  0  0  0
    2.8927    0.6305    2.2156 S   0  0  0  0  0  0  0  0  0  0  0  0
    3.1750   -1.5027    0.2318 O   0  0  0  0  0  0  0  0  0  0  0  0
    2.8561   -2.6619   -0.5730 C   0  0  0  0  0  0  0  0  0  0  0  0
    2.4316   -2.2954   -1.9795 C   0  0  0  0  0  0  0  0  0  0  0  0
    0.3973   -1.5280    1.1564 S   0  0  0  0  0  0  0  0  0  0  0  0
   -0.3966   -0.2653    2.1799 C   0  0  0  0  0  0  0  0  0  0  0  0
   -0.8888    1.2214    1.2616 S   0  0  0  0  0  0  0  0  0  0  0  0
   -1.9909    0.3204   -0.3210 P   0  0  0  0  0  0  0  0  0  0  0  0
   -1.0910   -0.3010   -1.9505 S   0  0  0  0  0  0  0  0  0  0  0  0
   -3.1272    1.3964   -0.6141 O   0  0  0  0  0  0  0  0  0  0  0  0
   -2.9517    2.4490   -1.5739 C   0  0  0  0  0  0  0  0  0  0  0  0
   -1.9708    3.4936   -1.0812 C   0  0  0  0  0  0  0  0  0  0  0  0
   -2.7685   -0.7723    0.5178 O   0  0  0  0  0  0  0  0  0  0  0  0
   -3.3262   -1.9505   -0.1027 C   0  0  0  0  0  0  0  0  0  0  0  0
   -4.5311   -1.6128   -0.9549 C   0  0  0  0  0  0  0  0  0  0  0  0
    3.6449    1.0579   -2.2281 H   0  0  0  0  0  0  0  0  0  0  0  0
    3.9827    2.6588   -1.5438 H   0  0  0  0  0  0  0  0  0  0  0  0
    4.2518    1.2031   -0.5692 H   0  0  0  0  0  0  0  0  0  0  0  0
    1.5117    2.1522   -1.5535 H   0  0  0  0  0  0  0  0  0  0  0  0
    2.1513    2.3608    0.1065 H   0  0  0  0  0  0  0  0  0  0  0  0
    3.7868   -3.2319   -0.5693 H   0  0  0  0  0  0  0  0  0  0  0  0
    2.0725   -3.2301   -0.0639 H   0  0  0  0  0  0  0  0  0  0  0  0
    1.5010   -1.7305   -1.9682 H   0  0  0  0  0  0  0  0  0  0  0  0
    3.1999   -1.6962   -2.4610 H   0  0  0  0  0  0  0  0  0  0  0  0
    2.2794   -3.2055   -2.5513 H   0  0  0  0  0  0  0  0  0  0  0  0
    0.3051    0.0759    2.9428 H   0  0  0  0  0  0  0  0  0  0  0  0
   -1.2743   -0.7272    2.6245 H   0  0  0  0  0  0  0  0  0  0  0  0
   -2.6058    2.0069   -2.5149 H   0  0  0  0  0  0  0  0  0  0  0  0
   -3.9524    2.8629   -1.7037 H   0  0  0  0  0  0  0  0  0  0  0  0
   -1.9001    4.2986   -1.8056 H   0  0  0  0  0  0  0  0  0  0  0  0
   -2.2926    3.8934   -0.1232 H   0  0  0  0  0  0  0  0  0  0  0  0
   -0.9863    3.0423   -0.9523 H   0  0  0  0  0  0  0  0  0  0  0  0
   -2.5459   -2.4290   -0.7032 H   0  0  0  0  0  0  0  0  0  0  0  0
   -3.5895   -2.5909    0.7399 H   0  0  0  0  0  0  0  0  0  0  0  0
   -4.2240   -1.0029   -1.8034 H   0  0  0  0  0  0  0  0  0  0  0  0
   -4.9802   -2.5298   -1.3230 H   0  0  0  0  0  0  0  0  0  0  0  0
   -5.2613   -1.0592   -0.3706 H   0  0  0  0  0  0  0  0  0  0  0  0
  1  2  1  0  0  0  0
  2  3  1  0  0  0  0
  3  4  1  0  0  0  0
  4  5  2  0  0  0  0
  4  6  2  0  0  0  0
  6  7  1  0  0  0  0
  7  8  1  0  0  0  0
  4  9  1  0  0  0  0
  9 10  1  0  0  0  0
 10 11  1  0  0  0  0
 11 12  1  0  0  0  0
 12 13  2  0  0  0  0
 12 14  2  0  0  0  0
 14 15  1  0  0  0  0
 15 16  1  0  0  0  0
 12 17  2  0  0  0  0
 17 18  1  0  0  0  0
 18 19  1  0  0  0  0
  1 20  1  0  0  0  0
  1 21  1  0  0  0  0
  1 22  1  0  0  0  0
  2 23  1  0  0  0  0
  2 24  1  0  0  0  0
  7 25  1  0  0  0  0
  7 26  1  0  0  0  0
  8 27  1  0  0  0  0
  8 28  1  0  0  0  0
  8 29  1  0  0  0  0
 10 30  1  0  0  0  0
 10 31  1  0  0  0  0
 15 32  1  0  0  0  0
 15 33  1  0  0  0  0
 16 34  1  0  0  0  0
 16 35  1  0  0  0  0
 16 36  1  0  0  0  0
 18 37  1  0  0  0  0
 18 38  1  0  0  0  0
 19 39  1  0  0  0  0
 19 40  1  0  0  0  0
 19 41  1  0  0  0  0
M  END
