 xtb: 6.7.1 (edcfbbe)
          04092505213D

 41 40  0     0  0            999 V2000
    4.4398   -0.7152   -1.6917 C   0  0  0  0  0  0  0  0  0  0  0  0
    3.1351   -0.0005   -1.9678 C   0  0  0  0  0  0  0  0  0  0  0  0
    2.6344    0.7205   -0.8170 O   0  0  0  0  0  0  0  0  0  0  0  0
    2.3667    0.1400    0.6233 P   0  0  0  0  0  0  0  0  0  0  0  0
    1.1852    1.3164    1.6465 S   0  0  0  0  0  0  0  0  0  0  0  0
    3.8315   -0.0068    1.2190 O   0  0  0  0  0  0  0  0  0  0  0  0
    4.0955   -0.1030    2.6297 C   0  0  0  0  0  0  0  0  0  0  0  0
    3.5553   -1.3836    3.2328 C   0  0  0  0  0  0  0  0  0  0  0  0
    1.6932   -1.8697    0.3693 S   0  0  0  0  0  0  0  0  0  0  0  0
   -0.0595   -1.5018    0.2233 C   0  0  0  0  0  0  0  0  0  0  0  0
   -0.3774   -0.5714   -1.3294 S   0  0  0  0  0  0  0  0  0  0  0  0
   -2.2819    0.1703   -0.8687 P   0  0  0  0  0  0  0  0  0  0  0  0
   -3.0517    1.3632   -2.2175 S   0  0  0  0  0  0  0  0  0  0  0  0
   -2.1895    0.7984    0.5961 O   0  0  0  0  0  0  0  0  0  0  0  0
   -2.1903    2.2129    0.8537 C   0  0  0  0  0  0  0  0  0  0  0  0
   -3.5567    2.6435    1.3471 C   0  0  0  0  0  0  0  0  0  0  0  0
   -2.9824   -1.2213   -0.5636 O   0  0  0  0  0  0  0  0  0  0  0  0
   -4.3433   -1.3065   -0.0804 C   0  0  0  0  0  0  0  0  0  0  0  0
   -5.3304   -1.3580   -1.2291 C   0  0  0  0  0  0  0  0  0  0  0  0
    4.8052   -1.1503   -2.6167 H   0  0  0  0  0  0  0  0  0  0  0  0
    5.1770   -0.0160   -1.3060 H   0  0  0  0  0  0  0  0  0  0  0  0
    4.2896   -1.5084   -0.9619 H   0  0  0  0  0  0  0  0  0  0  0  0
    2.3577   -0.6996   -2.2910 H   0  0  0  0  0  0  0  0  0  0  0  0
    3.2524    0.7829   -2.7179 H   0  0  0  0  0  0  0  0  0  0  0  0
    5.1835   -0.0560    2.6920 H   0  0  0  0  0  0  0  0  0  0  0  0
    3.6574    0.7699    3.1239 H   0  0  0  0  0  0  0  0  0  0  0  0
    3.8999   -1.4678    4.2585 H   0  0  0  0  0  0  0  0  0  0  0  0
    2.4668   -1.3685    3.2276 H   0  0  0  0  0  0  0  0  0  0  0  0
    3.8975   -2.2445    2.6644 H   0  0  0  0  0  0  0  0  0  0  0  0
   -0.3776   -0.8854    1.0653 H   0  0  0  0  0  0  0  0  0  0  0  0
   -0.5865   -2.4511    0.1871 H   0  0  0  0  0  0  0  0  0  0  0  0
   -1.4134    2.3714    1.6047 H   0  0  0  0  0  0  0  0  0  0  0  0
   -1.9234    2.7469   -0.0630 H   0  0  0  0  0  0  0  0  0  0  0  0
   -3.5255    3.6974    1.6029 H   0  0  0  0  0  0  0  0  0  0  0  0
   -4.2974    2.4905    0.5641 H   0  0  0  0  0  0  0  0  0  0  0  0
   -3.8364    2.0687    2.2257 H   0  0  0  0  0  0  0  0  0  0  0  0
   -4.3617   -2.2304    0.5007 H   0  0  0  0  0  0  0  0  0  0  0  0
   -4.5422   -0.4559    0.5764 H   0  0  0  0  0  0  0  0  0  0  0  0
   -5.0951   -2.1904   -1.8866 H   0  0  0  0  0  0  0  0  0  0  0  0
   -6.3334   -1.4838   -0.8338 H   0  0  0  0  0  0  0  0  0  0  0  0
   -5.2887   -0.4372   -1.8072 H   0  0  0  0  0  0  0  0  0  0  0  0
  1  2  1  0  0  0  0
  2  3  1  0  0  0  0
  3  4  2  0  0  0  0
  4  5  2  0  0  0  0
  4  6  2  0  0  0  0
  6  7  1  0  0  0  0
  7  8  1  0  0  0  0
  4  9  1  0  0  0  0
  9 10  1  0  0  0  0
 10 11  1  0  0  0  0
 11 12  1  0  0  0  0
 12 13  2  0  0  0  0
 12 14  2  0  0  0  0
 14 15  1  0  0  0  0
 15 16  1  0  0  0  0
 12 17  2  0  0  0  0
 17 18  1  0  0  0  0
 18 19  1  0  0  0  0
  1 20  1  0  0  0  0
  1 21  1  0  0  0  0
  1 22  1  0  0  0  0
  2 23  1  0  0  0  0
  2 24  1  0  0  0  0
  7 25  1  0  0  0  0
  7 26  1  0  0  0  0
  8 27  1  0  0  0  0
  8 28  1  0  0  0  0
  8 29  1  0  0  0  0
 10 30  1  0  0  0  0
 10 31  1  0  0  0  0
 15 32  1  0  0  0  0
 15 33  1  0  0  0  0
 16 34  1  0  0  0  0
 16 35  1  0  0  0  0
 16 36  1  0  0  0  0
 18 37  1  0  0  0  0
 18 38  1  0  0  0  0
 19 39  1  0  0  0  0
 19 40  1  0  0  0  0
 19 41  1  0  0  0  0
M  END
