 xtb: 6.7.1 (edcfbbe)
          04092505203D

 41 40  0     0  0            999 V2000
    4.6327   -1.5260   -1.1263 C   0  0  0  0  0  0  0  0  0  0  0  0
    4.6864   -0.0877   -0.6535 C   0  0  0  0  0  0  0  0  0  0  0  0
    3.5775    0.2425    0.2009 O   0  0  0  0  0  0  0  0  0  0  0  0
    2.0801    0.3308   -0.3350 P   0  0  0  0  0  0  0  0  0  0  0  0
    1.9426    1.1047   -2.1360 S   0  0  0  0  0  0  0  0  0  0  0  0
    1.3973    1.1041    0.8667 O   0  0  0  0  0  0  0  0  0  0  0  0
    1.5609    2.5297    1.0261 C   0  0  0  0  0  0  0  0  0  0  0  0
    0.7890    2.9428    2.2608 C   0  0  0  0  0  0  0  0  0  0  0  0
    1.3041   -1.5911   -0.0280 S   0  0  0  0  0  0  0  0  0  0  0  0
   -0.0104   -1.6274   -1.3004 C   0  0  0  0  0  0  0  0  0  0  0  0
   -1.6543   -1.8834   -0.6034 S   0  0  0  0  0  0  0  0  0  0  0  0
   -1.9237    0.0285    0.2898 P   0  0  0  0  0  0  0  0  0  0  0  0
   -1.3507    1.5712   -0.7735 S   0  0  0  0  0  0  0  0  0  0  0  0
   -1.2044   -0.0193    1.6908 O   0  0  0  0  0  0  0  0  0  0  0  0
   -1.1417   -1.1462    2.6001 C   0  0  0  0  0  0  0  0  0  0  0  0
   -2.5068   -1.6783    2.9766 C   0  0  0  0  0  0  0  0  0  0  0  0
   -3.4624    0.0539    0.6863 O   0  0  0  0  0  0  0  0  0  0  0  0
   -4.4908    0.5008   -0.2125 C   0  0  0  0  0  0  0  0  0  0  0  0
   -4.6799   -0.4389   -1.3860 C   0  0  0  0  0  0  0  0  0  0  0  0
    3.7873   -1.6627   -1.7993 H   0  0  0  0  0  0  0  0  0  0  0  0
    5.5480   -1.7619   -1.6595 H   0  0  0  0  0  0  0  0  0  0  0  0
    4.5218   -2.1988   -0.2797 H   0  0  0  0  0  0  0  0  0  0  0  0
    4.6788    0.5977   -1.5070 H   0  0  0  0  0  0  0  0  0  0  0  0
    5.5612    0.1014   -0.0301 H   0  0  0  0  0  0  0  0  0  0  0  0
    2.6279    2.7486    1.1214 H   0  0  0  0  0  0  0  0  0  0  0  0
    1.1709    3.0198    0.1271 H   0  0  0  0  0  0  0  0  0  0  0  0
    0.8733    4.0166    2.3919 H   0  0  0  0  0  0  0  0  0  0  0  0
   -0.2583    2.6753    2.1411 H   0  0  0  0  0  0  0  0  0  0  0  0
    1.1854    2.4344    3.1347 H   0  0  0  0  0  0  0  0  0  0  0  0
    0.1766   -2.4779   -1.9506 H   0  0  0  0  0  0  0  0  0  0  0  0
    0.0214   -0.6877   -1.8589 H   0  0  0  0  0  0  0  0  0  0  0  0
   -0.5303   -1.9267    2.1377 H   0  0  0  0  0  0  0  0  0  0  0  0
   -0.6149   -0.7350    3.4624 H   0  0  0  0  0  0  0  0  0  0  0  0
   -2.9940   -2.1175    2.1087 H   0  0  0  0  0  0  0  0  0  0  0  0
   -2.3872   -2.4419    3.7391 H   0  0  0  0  0  0  0  0  0  0  0  0
   -3.1309   -0.8770    3.3632 H   0  0  0  0  0  0  0  0  0  0  0  0
   -5.3817    0.5447    0.4156 H   0  0  0  0  0  0  0  0  0  0  0  0
   -4.2327    1.5054   -0.5624 H   0  0  0  0  0  0  0  0  0  0  0  0
   -5.5557   -0.1340   -1.9499 H   0  0  0  0  0  0  0  0  0  0  0  0
   -3.8105   -0.3994   -2.0403 H   0  0  0  0  0  0  0  0  0  0  0  0
   -4.8115   -1.4599   -1.0375 H   0  0  0  0  0  0  0  0  0  0  0  0
  1  2  1  0  0  0  0
  2  3  1  0  0  0  0
  3  4  2  0  0  0  0
  4  5  2  0  0  0  0
  4  6  2  0  0  0  0
  6  7  1  0  0  0  0
  7  8  1  0  0  0  0
  4  9  1  0  0  0  0
  9 10  1  0  0  0  0
 10 11  1  0  0  0  0
 11 12  1  0  0  0  0
 12 13  2  0  0  0  0
 12 14  2  0  0  0  0
 14 15  1  0  0  0  0
 15 16  1  0  0  0  0
 12 17  2  0  0  0  0
 17 18  1  0  0  0  0
 18 19  1  0  0  0  0
  1 20  1  0  0  0  0
  1 21  1  0  0  0  0
  1 22  1  0  0  0  0
  2 23  1  0  0  0  0
  2 24  1  0  0  0  0
  7 25  1  0  0  0  0
  7 26  1  0  0  0  0
  8 27  1  0  0  0  0
  8 28  1  0  0  0  0
  8 29  1  0  0  0  0
 10 30  1  0  0  0  0
 10 31  1  0  0  0  0
 15 32  1  0  0  0  0
 15 33  1  0  0  0  0
 16 34  1  0  0  0  0
 16 35  1  0  0  0  0
 16 36  1  0  0  0  0
 18 37  1  0  0  0  0
 18 38  1  0  0  0  0
 19 39  1  0  0  0  0
 19 40  1  0  0  0  0
 19 41  1  0  0  0  0
M  END
