38
 xtb: 6.7.1 (edcfbbe)
C            1.27934999921403       -3.32431141567702       -2.34686710255061
C            2.60622195704454       -2.60606000727235       -2.26608097588260
O            2.50149610384305       -1.44599410578527       -1.37517365276484
C            2.60861577581148       -1.66949908214650       -0.05971826339823
O            2.89584577314044       -2.74305080863760        0.43867568817789
C            2.33997266205285       -0.41214049495192        0.73501261723594
C            0.98286172001468        0.21158091934658        0.36843717125660
H            0.96617190835649        0.45153986036188       -0.69721701953567
C            0.76732134348361        1.49422779549120        1.16023064060721
O            0.10278432213318        1.60674184201908        2.17112730452501
O            1.45021861030825        2.48637577929293        0.58473050255455
C            1.40092128516694        3.78940923249570        1.26111338413532
C            2.25654272898665        4.73411768990325        0.45952380245983
S           -0.32347624465610       -1.04712632262098        0.69538040218010
P           -2.01527705005454       -0.10344782282549       -0.17203488086491
S           -1.64412282196434        1.11103179761051       -1.63996886499254
O           -2.95827776606611       -1.37914463693703       -0.45137366568722
C           -2.62944644321105       -2.31424526456369       -1.51874425074301
O           -2.83480494739427        0.63065272562314        0.99406340546344
C           -3.14598110406810       -0.04579412516852        2.24934604116185
H            1.35694397948687       -4.13164225184360       -3.08192083575659
H            1.00223123857686       -3.76180886375498       -1.38384654943144
H            0.48912938067194       -2.63931998265952       -2.66862763779585
H            2.88858959481434       -2.17116023180801       -3.22609284292907
H            3.41150833403643       -3.25259069464724       -1.90967219622382
H            3.12147931329271        0.31954652993207        0.50054227326593
H            2.39296820933821       -0.65371337918861        1.79827907091896
H            0.35530427687911        4.10764072787416        1.29973976511315
H            1.77405873949087        3.65469049402749        2.28020717348638
H            3.29518915614862        4.39352108000705        0.42649684649064
H            1.88027415351131        4.83531906391014       -0.56231695782446
H            2.23282201316961        5.71976006872038        0.93347445234774
H           -1.72628556575313       -2.87474214260678       -1.26385326459723
H           -2.49651855311510       -1.77797738339492       -2.46196397204460
H           -3.48215375032528       -2.98940389120811       -1.58745218782730
H           -2.22398147481680       -0.25966942055918        2.79561107344465
H           -3.70570242371634       -0.96455635119328        2.05992841670632
H           -3.75897542336978        0.65862831642233        2.81108940196189
