 xtb: 6.7.1 (edcfbbe)
          04032519423D

 20 20  0     0  0            999 V2000
    0.6090    1.6951   -0.0349 C   0  0  0  0  0  0  0  0  0  0  0  0
    1.4173    0.4037   -0.2422 C   0  0  0  0  0  0  0  0  0  0  0  0
    1.6751    0.2841   -1.3038 H   0  0  0  0  0  0  0  0  0  0  0  0
    0.5670   -0.8054    0.1657 C   0  0  0  0  0  0  0  0  0  0  0  0
    0.4384   -0.7780    1.2568 H   0  0  0  0  0  0  0  0  0  0  0  0
   -0.8135   -0.7521   -0.5110 C   0  0  0  0  0  0  0  0  0  0  0  0
   -0.6696   -0.9156   -1.5860 H   0  0  0  0  0  0  0  0  0  0  0  0
   -1.4721    0.6288   -0.2975 C   0  0  0  0  0  0  0  0  0  0  0  0
   -2.3642    0.7291   -0.9382 H   0  0  0  0  0  0  0  0  0  0  0  0
   -0.6323    1.6586   -0.7227 O   0  0  0  0  0  0  0  0  0  0  0  0
   -1.8313    0.7985    1.0437 O   0  0  0  0  0  0  0  0  0  0  0  0
   -1.6048   -1.7612    0.0730 O   0  0  0  0  0  0  0  0  0  0  0  0
    1.2514   -1.9725   -0.2176 O   0  0  0  0  0  0  0  0  0  0  0  0
    2.5712    0.4015    0.5616 O   0  0  0  0  0  0  0  0  0  0  0  0
    1.1333    2.5574   -0.4462 H   0  0  0  0  0  0  0  0  0  0  0  0
    0.4400    1.8416    1.0384 H   0  0  0  0  0  0  0  0  0  0  0  0
   -2.0397   -0.0773    1.4134 H   0  0  0  0  0  0  0  0  0  0  0  0
   -2.3555   -1.9762   -0.4985 H   0  0  0  0  0  0  0  0  0  0  0  0
    0.7582   -2.7410    0.1056 H   0  0  0  0  0  0  0  0  0  0  0  0
    3.2201    1.0243    0.2058 H   0  0  0  0  0  0  0  0  0  0  0  0
  1  2  1  0  0  0  0
  2  3  1  0  0  0  0
  2  4  1  0  0  0  0
  4  5  1  0  0  0  0
  4  6  1  0  0  0  0
  6  7  1  0  0  0  0
  6  8  1  0  0  0  0
  8  9  1  0  0  0  0
  1 10  1  0  0  0  0
  8 10  1  0  0  0  0
  8 11  1  0  0  0  0
  6 12  1  0  0  0  0
  4 13  1  0  0  0  0
  2 14  1  0  0  0  0
  1 15  1  0  0  0  0
  1 16  1  0  0  0  0
 11 17  1  0  0  0  0
 12 18  1  0  0  0  0
 13 19  1  0  0  0  0
 14 20  1  0  0  0  0
M  END
