 xtb: 6.7.1 (edcfbbe)
          04092505213D

 41 40  0     0  0            999 V2000
    4.5805    0.5475   -2.1726 C   0  0  0  0  0  0  0  0  0  0  0  0
    4.4704    1.1783   -0.7999 C   0  0  0  0  0  0  0  0  0  0  0  0
    3.7123    0.3611    0.1088 O   0  0  0  0  0  0  0  0  0  0  0  0
    2.1504    0.1105   -0.0657 P   0  0  0  0  0  0  0  0  0  0  0  0
    1.1651    1.7172   -0.6274 S   0  0  0  0  0  0  0  0  0  0  0  0
    1.7733   -0.4878    1.3503 O   0  0  0  0  0  0  0  0  0  0  0  0
    1.7244    0.3416    2.5326 C   0  0  0  0  0  0  0  0  0  0  0  0
    0.9562   -0.4155    3.5957 C   0  0  0  0  0  0  0  0  0  0  0  0
    2.0246   -1.6329   -1.2271 S   0  0  0  0  0  0  0  0  0  0  0  0
    0.2434   -1.6570   -1.5583 C   0  0  0  0  0  0  0  0  0  0  0  0
   -0.7631   -1.9190   -0.0661 S   0  0  0  0  0  0  0  0  0  0  0  0
   -1.8935   -0.1360   -0.0447 P   0  0  0  0  0  0  0  0  0  0  0  0
   -2.0869    0.7306   -1.8003 S   0  0  0  0  0  0  0  0  0  0  0  0
   -1.2518    0.6361    1.1787 O   0  0  0  0  0  0  0  0  0  0  0  0
   -1.9408    1.6599    1.9334 C   0  0  0  0  0  0  0  0  0  0  0  0
   -2.2545    2.8773    1.0896 C   0  0  0  0  0  0  0  0  0  0  0  0
   -3.2792   -0.5843    0.5944 O   0  0  0  0  0  0  0  0  0  0  0  0
   -4.3161   -1.2097   -0.1862 C   0  0  0  0  0  0  0  0  0  0  0  0
   -5.6475   -0.9184    0.4769 C   0  0  0  0  0  0  0  0  0  0  0  0
    3.6015    0.5255   -2.6503 H   0  0  0  0  0  0  0  0  0  0  0  0
    5.2574    1.1343   -2.7853 H   0  0  0  0  0  0  0  0  0  0  0  0
    4.9527   -0.4706   -2.0920 H   0  0  0  0  0  0  0  0  0  0  0  0
    3.9891    2.1596   -0.8642 H   0  0  0  0  0  0  0  0  0  0  0  0
    5.4442    1.2711   -0.3174 H   0  0  0  0  0  0  0  0  0  0  0  0
    2.7522    0.5440    2.8437 H   0  0  0  0  0  0  0  0  0  0  0  0
    1.2364    1.2867    2.2704 H   0  0  0  0  0  0  0  0  0  0  0  0
    1.4486   -1.3614    3.8014 H   0  0  0  0  0  0  0  0  0  0  0  0
    0.9186    0.1786    4.5032 H   0  0  0  0  0  0  0  0  0  0  0  0
   -0.0545   -0.6172    3.2504 H   0  0  0  0  0  0  0  0  0  0  0  0
    0.0832   -2.4989   -2.2271 H   0  0  0  0  0  0  0  0  0  0  0  0
   -0.0699   -0.7192   -2.0276 H   0  0  0  0  0  0  0  0  0  0  0  0
   -2.8501    1.2234    2.3522 H   0  0  0  0  0  0  0  0  0  0  0  0
   -1.2396    1.9014    2.7343 H   0  0  0  0  0  0  0  0  0  0  0  0
   -1.3505    3.2368    0.6005 H   0  0  0  0  0  0  0  0  0  0  0  0
   -2.9809    2.6258    0.3180 H   0  0  0  0  0  0  0  0  0  0  0  0
   -2.6605    3.6620    1.7197 H   0  0  0  0  0  0  0  0  0  0  0  0
   -4.2778   -0.8065   -1.2040 H   0  0  0  0  0  0  0  0  0  0  0  0
   -4.1104   -2.2823   -0.2159 H   0  0  0  0  0  0  0  0  0  0  0  0
   -5.6422   -1.2870    1.4987 H   0  0  0  0  0  0  0  0  0  0  0  0
   -5.8365    0.1515    0.4873 H   0  0  0  0  0  0  0  0  0  0  0  0
   -6.4360   -1.4138   -0.0798 H   0  0  0  0  0  0  0  0  0  0  0  0
  1  2  1  0  0  0  0
  2  3  1  0  0  0  0
  3  4  2  0  0  0  0
  4  5  2  0  0  0  0
  4  6  2  0  0  0  0
  6  7  1  0  0  0  0
  7  8  1  0  0  0  0
  4  9  1  0  0  0  0
  9 10  1  0  0  0  0
 10 11  1  0  0  0  0
 11 12  1  0  0  0  0
 12 13  2  0  0  0  0
 12 14  2  0  0  0  0
 14 15  1  0  0  0  0
 15 16  1  0  0  0  0
 12 17  2  0  0  0  0
 17 18  1  0  0  0  0
 18 19  1  0  0  0  0
  1 20  1  0  0  0  0
  1 21  1  0  0  0  0
  1 22  1  0  0  0  0
  2 23  1  0  0  0  0
  2 24  1  0  0  0  0
  7 25  1  0  0  0  0
  7 26  1  0  0  0  0
  8 27  1  0  0  0  0
  8 28  1  0  0  0  0
  8 29  1  0  0  0  0
 10 30  1  0  0  0  0
 10 31  1  0  0  0  0
 15 32  1  0  0  0  0
 15 33  1  0  0  0  0
 16 34  1  0  0  0  0
 16 35  1  0  0  0  0
 16 36  1  0  0  0  0
 18 37  1  0  0  0  0
 18 38  1  0  0  0  0
 19 39  1  0  0  0  0
 19 40  1  0  0  0  0
 19 41  1  0  0  0  0
M  END
