 xtb: 6.7.1 (edcfbbe)
          04092507313D

 38 37  0     0  0            999 V2000
    4.8256   -3.4343   -1.7894 C   0  0  0  0  0  0  0  0  0  0  0  0
    3.6183   -3.7866   -0.9348 C   0  0  0  0  0  0  0  0  0  0  0  0
    3.2292   -2.6727   -0.1076 O   0  0  0  0  0  0  0  0  0  0  0  0
    2.4101   -1.7711   -0.6108 C   0  0  0  0  0  0  0  0  0  0  0  0
    1.9258   -1.8185   -1.7195 O   0  0  0  0  0  0  0  0  0  0  0  0
    2.1551   -0.6531    0.3834 C   0  0  0  0  0  0  0  0  0  0  0  0
    0.8232    0.0200    0.0919 C   0  0  0  0  0  0  0  0  0  0  0  0
    0.7315    0.1892   -0.9894 H   0  0  0  0  0  0  0  0  0  0  0  0
    0.6323    1.3546    0.7822 C   0  0  0  0  0  0  0  0  0  0  0  0
   -0.4225    1.6604    1.3020 O   0  0  0  0  0  0  0  0  0  0  0  0
    1.6938    2.1084    0.7266 O   0  0  0  0  0  0  0  0  0  0  0  0
    1.5946    3.4644    1.2185 C   0  0  0  0  0  0  0  0  0  0  0  0
    1.0806    4.3848    0.1241 C   0  0  0  0  0  0  0  0  0  0  0  0
   -0.5656   -1.0536    0.5925 S   0  0  0  0  0  0  0  0  0  0  0  0
   -2.1588    0.2083   -0.0614 P   0  0  0  0  0  0  0  0  0  0  0  0
   -1.8207    1.6383   -1.3538 S   0  0  0  0  0  0  0  0  0  0  0  0
   -3.0939   -0.8619   -0.7824 O   0  0  0  0  0  0  0  0  0  0  0  0
   -3.5907   -2.0377   -0.1225 C   0  0  0  0  0  0  0  0  0  0  0  0
   -3.0844    0.5329    1.1983 O   0  0  0  0  0  0  0  0  0  0  0  0
   -3.0973    1.7152    1.9984 C   0  0  0  0  0  0  0  0  0  0  0  0
    5.1384   -4.3111   -2.3466 H   0  0  0  0  0  0  0  0  0  0  0  0
    4.5689   -2.6442   -2.4914 H   0  0  0  0  0  0  0  0  0  0  0  0
    5.6447   -3.0982   -1.1598 H   0  0  0  0  0  0  0  0  0  0  0  0
    3.8502   -4.5823   -0.2270 H   0  0  0  0  0  0  0  0  0  0  0  0
    2.7679   -4.0685   -1.5619 H   0  0  0  0  0  0  0  0  0  0  0  0
    2.9550    0.0835    0.2750 H   0  0  0  0  0  0  0  0  0  0  0  0
    2.1841   -1.0621    1.3929 H   0  0  0  0  0  0  0  0  0  0  0  0
    0.9271    3.4741    2.0836 H   0  0  0  0  0  0  0  0  0  0  0  0
    2.6120    3.7201    1.5132 H   0  0  0  0  0  0  0  0  0  0  0  0
    1.0118    5.3974    0.5068 H   0  0  0  0  0  0  0  0  0  0  0  0
    1.7524    4.3675   -0.7294 H   0  0  0  0  0  0  0  0  0  0  0  0
    0.0944    4.0629   -0.2074 H   0  0  0  0  0  0  0  0  0  0  0  0
   -2.7621   -2.6021    0.3075 H   0  0  0  0  0  0  0  0  0  0  0  0
   -4.0841   -2.6143   -0.9007 H   0  0  0  0  0  0  0  0  0  0  0  0
   -4.2952   -1.7547    0.6574 H   0  0  0  0  0  0  0  0  0  0  0  0
   -4.1133    1.7954    2.3791 H   0  0  0  0  0  0  0  0  0  0  0  0
   -2.8449    2.5849    1.3923 H   0  0  0  0  0  0  0  0  0  0  0  0
   -2.3816    1.6154    2.8117 H   0  0  0  0  0  0  0  0  0  0  0  0
  1  2  1  0  0  0  0
  2  3  1  0  0  0  0
  3  4  1  0  0  0  0
  4  5  2  0  0  0  0
  4  6  1  0  0  0  0
  6  7  1  0  0  0  0
  7  8  1  0  0  0  0
  7  9  1  0  0  0  0
  9 10  2  0  0  0  0
  9 11  4  0  0  0  0
 11 12  1  0  0  0  0
 12 13  1  0  0  0  0
  7 14  1  0  0  0  0
 14 15  1  0  0  0  0
 15 16  2  0  0  0  0
 15 17  1  0  0  0  0
 17 18  1  0  0  0  0
 15 19  2  0  0  0  0
 19 20  1  0  0  0  0
  1 21  1  0  0  0  0
  1 22  1  0  0  0  0
  1 23  1  0  0  0  0
  2 24  1  0  0  0  0
  2 25  1  0  0  0  0
  6 26  1  0  0  0  0
  6 27  1  0  0  0  0
 12 28  1  0  0  0  0
 12 29  1  0  0  0  0
 13 30  1  0  0  0  0
 13 31  1  0  0  0  0
 13 32  1  0  0  0  0
 18 33  1  0  0  0  0
 18 34  1  0  0  0  0
 18 35  1  0  0  0  0
 20 36  1  0  0  0  0
 20 37  1  0  0  0  0
 20 38  1  0  0  0  0
M  END
