 xtb: 6.7.1 (edcfbbe)
          04092507313D

 38 37  0     0  0            999 V2000
    3.3364   -3.8135    0.4860 C   0  0  0  0  0  0  0  0  0  0  0  0
    2.9427   -3.3734   -0.9148 C   0  0  0  0  0  0  0  0  0  0  0  0
    2.8505   -1.9368   -0.9967 O   0  0  0  0  0  0  0  0  0  0  0  0
    1.7341   -1.3570   -0.6158 C   0  0  0  0  0  0  0  0  0  0  0  0
    0.7464   -1.9533   -0.2376 O   0  0  0  0  0  0  0  0  0  0  0  0
    1.8409    0.1488   -0.6762 C   0  0  0  0  0  0  0  0  0  0  0  0
    0.6596    0.8445   -1.3764 C   0  0  0  0  0  0  0  0  0  0  0  0
    0.9347    1.1145   -2.3984 H   0  0  0  0  0  0  0  0  0  0  0  0
    0.2717    2.1024   -0.6111 C   0  0  0  0  0  0  0  0  0  0  0  0
   -0.8410    2.2812   -0.1655 O   0  0  0  0  0  0  0  0  0  0  0  0
    1.2772    2.9289   -0.5036 O   0  0  0  0  0  0  0  0  0  0  0  0
    1.1056    4.1138    0.3049 C   0  0  0  0  0  0  0  0  0  0  0  0
    1.4671    3.8187    1.7514 C   0  0  0  0  0  0  0  0  0  0  0  0
   -0.8639   -0.1316   -1.5982 S   0  0  0  0  0  0  0  0  0  0  0  0
   -1.4690   -0.3798    0.4293 P   0  0  0  0  0  0  0  0  0  0  0  0
   -0.3582    0.1199    1.9595 S   0  0  0  0  0  0  0  0  0  0  0  0
   -2.9557    0.2337    0.4667 O   0  0  0  0  0  0  0  0  0  0  0  0
   -3.3397    1.5358    0.8989 C   0  0  0  0  0  0  0  0  0  0  0  0
   -1.8697   -1.9113    0.5344 O   0  0  0  0  0  0  0  0  0  0  0  0
   -2.6792   -2.5833   -0.4414 C   0  0  0  0  0  0  0  0  0  0  0  0
    2.5638   -3.5295    1.1981 H   0  0  0  0  0  0  0  0  0  0  0  0
    3.4520   -4.8921    0.5051 H   0  0  0  0  0  0  0  0  0  0  0  0
    4.2730   -3.3462    0.7773 H   0  0  0  0  0  0  0  0  0  0  0  0
    1.9771   -3.8016   -1.1976 H   0  0  0  0  0  0  0  0  0  0  0  0
    3.7071   -3.6357   -1.6460 H   0  0  0  0  0  0  0  0  0  0  0  0
    2.7768    0.4193   -1.1615 H   0  0  0  0  0  0  0  0  0  0  0  0
    1.8754    0.4701    0.3705 H   0  0  0  0  0  0  0  0  0  0  0  0
    1.7819    4.8451   -0.1369 H   0  0  0  0  0  0  0  0  0  0  0  0
    0.0681    4.4472    0.2214 H   0  0  0  0  0  0  0  0  0  0  0  0
    1.3234    4.7127    2.3486 H   0  0  0  0  0  0  0  0  0  0  0  0
    0.8326    3.0254    2.1448 H   0  0  0  0  0  0  0  0  0  0  0  0
    2.5035    3.5017    1.8239 H   0  0  0  0  0  0  0  0  0  0  0  0
   -3.2993    2.2293    0.0612 H   0  0  0  0  0  0  0  0  0  0  0  0
   -2.6738    1.8819    1.6902 H   0  0  0  0  0  0  0  0  0  0  0  0
   -4.3560    1.4330    1.2732 H   0  0  0  0  0  0  0  0  0  0  0  0
   -2.7849   -3.5990   -0.0689 H   0  0  0  0  0  0  0  0  0  0  0  0
   -2.1729   -2.5805   -1.4072 H   0  0  0  0  0  0  0  0  0  0  0  0
   -3.6496   -2.0956   -0.5246 H   0  0  0  0  0  0  0  0  0  0  0  0
  1  2  1  0  0  0  0
  2  3  1  0  0  0  0
  3  4  4  0  0  0  0
  4  5  2  0  0  0  0
  4  6  1  0  0  0  0
  6  7  1  0  0  0  0
  7  8  1  0  0  0  0
  7  9  1  0  0  0  0
  9 10  2  0  0  0  0
  9 11  4  0  0  0  0
 11 12  1  0  0  0  0
 12 13  1  0  0  0  0
  7 14  1  0  0  0  0
 14 15  1  0  0  0  0
 15 16  2  0  0  0  0
 15 17  1  0  0  0  0
 17 18  1  0  0  0  0
 15 19  1  0  0  0  0
 19 20  1  0  0  0  0
  1 21  1  0  0  0  0
  1 22  1  0  0  0  0
  1 23  1  0  0  0  0
  2 24  1  0  0  0  0
  2 25  1  0  0  0  0
  6 26  1  0  0  0  0
  6 27  1  0  0  0  0
 12 28  1  0  0  0  0
 12 29  1  0  0  0  0
 13 30  1  0  0  0  0
 13 31  1  0  0  0  0
 13 32  1  0  0  0  0
 18 33  1  0  0  0  0
 18 34  1  0  0  0  0
 18 35  1  0  0  0  0
 20 36  1  0  0  0  0
 20 37  1  0  0  0  0
 20 38  1  0  0  0  0
M  END
