 xtb: 6.7.1 (edcfbbe)
          04092507313D

 38 37  0     0  0            999 V2000
    2.9762   -3.7977    0.3008 C   0  0  0  0  0  0  0  0  0  0  0  0
    2.7479   -2.3353    0.6247 C   0  0  0  0  0  0  0  0  0  0  0  0
    2.3727   -1.6648   -0.5943 O   0  0  0  0  0  0  0  0  0  0  0  0
    2.0949   -0.3843   -0.5401 C   0  0  0  0  0  0  0  0  0  0  0  0
    2.1262    0.2896    0.4707 O   0  0  0  0  0  0  0  0  0  0  0  0
    1.7393    0.1908   -1.8976 C   0  0  0  0  0  0  0  0  0  0  0  0
    0.4027    0.9349   -1.8229 C   0  0  0  0  0  0  0  0  0  0  0  0
    0.2854    1.5731   -2.7014 H   0  0  0  0  0  0  0  0  0  0  0  0
    0.3127    1.7876   -0.5725 C   0  0  0  0  0  0  0  0  0  0  0  0
   -0.5196    1.5666    0.2958 O   0  0  0  0  0  0  0  0  0  0  0  0
    1.1408    2.7806   -0.5882 O   0  0  0  0  0  0  0  0  0  0  0  0
    1.2489    3.6556    0.5597 C   0  0  0  0  0  0  0  0  0  0  0  0
    2.6483    3.5410    1.1368 C   0  0  0  0  0  0  0  0  0  0  0  0
   -1.0273   -0.2040   -1.8524 S   0  0  0  0  0  0  0  0  0  0  0  0
   -1.6427   -0.4952    0.1511 P   0  0  0  0  0  0  0  0  0  0  0  0
   -0.5716   -1.0430    1.7118 S   0  0  0  0  0  0  0  0  0  0  0  0
   -2.9098    0.4249    0.5000 O   0  0  0  0  0  0  0  0  0  0  0  0
   -2.9657    1.4177    1.5215 C   0  0  0  0  0  0  0  0  0  0  0  0
   -2.4580   -1.7727   -0.4140 O   0  0  0  0  0  0  0  0  0  0  0  0
   -3.2438   -2.6051    0.4374 C   0  0  0  0  0  0  0  0  0  0  0  0
    3.2656   -4.3219    1.2052 H   0  0  0  0  0  0  0  0  0  0  0  0
    2.0625   -4.2363   -0.0893 H   0  0  0  0  0  0  0  0  0  0  0  0
    3.7615   -3.8964   -0.4426 H   0  0  0  0  0  0  0  0  0  0  0  0
    3.6511   -1.8552    1.0138 H   0  0  0  0  0  0  0  0  0  0  0  0
    1.9437   -2.1972    1.3556 H   0  0  0  0  0  0  0  0  0  0  0  0
    1.6837   -0.6072   -2.6355 H   0  0  0  0  0  0  0  0  0  0  0  0
    2.5221    0.9014   -2.1703 H   0  0  0  0  0  0  0  0  0  0  0  0
    1.0524    4.6600    0.1799 H   0  0  0  0  0  0  0  0  0  0  0  0
    0.4921    3.3705    1.2938 H   0  0  0  0  0  0  0  0  0  0  0  0
    2.7311    4.1840    2.0065 H   0  0  0  0  0  0  0  0  0  0  0  0
    2.8372    2.5117    1.4330 H   0  0  0  0  0  0  0  0  0  0  0  0
    3.3851    3.8371    0.3965 H   0  0  0  0  0  0  0  0  0  0  0  0
   -3.9650    1.3557    1.9478 H   0  0  0  0  0  0  0  0  0  0  0  0
   -2.7930    2.3990    1.0835 H   0  0  0  0  0  0  0  0  0  0  0  0
   -2.2123    1.2156    2.2850 H   0  0  0  0  0  0  0  0  0  0  0  0
   -3.4259   -3.5169   -0.1262 H   0  0  0  0  0  0  0  0  0  0  0  0
   -4.1835   -2.1096    0.6805 H   0  0  0  0  0  0  0  0  0  0  0  0
   -2.6940   -2.8271    1.3553 H   0  0  0  0  0  0  0  0  0  0  0  0
  1  2  1  0  0  0  0
  2  3  1  0  0  0  0
  3  4  4  0  0  0  0
  4  5  2  0  0  0  0
  4  6  1  0  0  0  0
  6  7  1  0  0  0  0
  7  8  1  0  0  0  0
  7  9  1  0  0  0  0
  9 10  2  0  0  0  0
  9 11  4  0  0  0  0
 11 12  1  0  0  0  0
 12 13  1  0  0  0  0
  7 14  1  0  0  0  0
 14 15  1  0  0  0  0
 15 16  2  0  0  0  0
 15 17  1  0  0  0  0
 17 18  1  0  0  0  0
 15 19  1  0  0  0  0
 19 20  1  0  0  0  0
  1 21  1  0  0  0  0
  1 22  1  0  0  0  0
  1 23  1  0  0  0  0
  2 24  1  0  0  0  0
  2 25  1  0  0  0  0
  6 26  1  0  0  0  0
  6 27  1  0  0  0  0
 12 28  1  0  0  0  0
 12 29  1  0  0  0  0
 13 30  1  0  0  0  0
 13 31  1  0  0  0  0
 13 32  1  0  0  0  0
 18 33  1  0  0  0  0
 18 34  1  0  0  0  0
 18 35  1  0  0  0  0
 20 36  1  0  0  0  0
 20 37  1  0  0  0  0
 20 38  1  0  0  0  0
M  END
