  22
 
 C          0.7411858017       -0.0001081165       -0.0000186176
 C          1.4434099377       -0.9456173306        0.7423692853
 C          2.8373370085       -0.9509270276        0.7464836556
 C          3.5327798083        0.0001350104       -0.0002560903
 C          2.8370527557        0.9510667955       -0.7469098717
 C          1.4431278900        0.9455011386       -0.7425446233
 Cl         0.5742426576        2.1070607912       -1.6546429780
 Cl         3.6930110553        2.1180628915       -1.6631597416
 Cl         5.2446505199        0.0003907879       -0.0001913081
 Cl         3.6936629259       -2.1177305785        1.6626499645
 Cl         0.5748863818       -2.1073128925        1.6546201838
 C         -0.7411568301       -0.0001242409        0.0001773116
 C         -1.4433783034       -0.7426326911       -0.9452405609
 C         -2.8373114842       -0.7467450636       -0.9505531125
 C         -3.5327407953        0.0001572143        0.0003981312
 C         -2.8370251049        0.7468717460        0.9512722869
 C         -1.4430985776        0.7424744855        0.9457362527
 Cl        -0.5742073696        1.6546649611        2.1072108699
 Cl        -3.6929952717        1.6633280190        2.1180897110
 Cl        -5.2446280484        0.0005579565        0.0003050588
 Cl        -3.6936138127       -1.6629836770       -2.1173030590
 Cl        -0.5748575712       -1.6549779071       -2.1068684710
          22
        -71.23977982
 C          0.7403856578        0.0019277068       -0.0007044088
 C          1.4456712283        0.9585268619        0.7263524911
 C          2.8395551988        0.9627662732        0.7294547161
 C          3.5346302562       -0.0009181891       -0.0009381990
 C          2.8374478869       -0.9628525643       -0.7316696026
 C          1.4436567734       -0.9557630376       -0.7283972857
 Cl         0.5808442205       -2.1236434589       -1.6373492287
 Cl         3.6926220458       -2.1452673100       -1.6292802813
 Cl         5.2465375101       -0.0031647351       -0.0004967731
 Cl         3.6973054707        2.1430830224        1.6271905950
 Cl         0.5853488399        2.1280147747        1.6356980125
 C         -0.7404230018        0.0018455118        0.0003056941
 C         -1.4435847251       -0.9559530589        0.7279963264
 C         -2.8373797030       -0.9631972236        0.7314944423
 C         -3.5346158974       -0.0011325438        0.0010168357
 C         -2.8396500130        0.9625198767       -0.7295215015
 C         -1.4458251408        0.9583436569       -0.7267765984
 Cl        -0.5857144898        2.1280946989       -1.6359030069
 Cl        -3.6975440672        2.1430898990       -1.6269321082
 Cl        -5.2464541832       -0.0033798897        0.0009151887
 Cl        -3.6923472759       -2.1454425998        1.6293468226
 Cl        -0.5805535273       -2.1234554953        1.6372807069
