 xtb: 6.7.1 (edcfbbe)
          04092514013D

 41 40  0     0  0            999 V2000
    0.3486   -2.1437    2.6446 C   0  0  0  0  0  0  0  0  0  0  0  0
    1.6030   -1.8738    1.8395 C   0  0  0  0  0  0  0  0  0  0  0  0
    1.6117   -0.4793    1.4679 O   0  0  0  0  0  0  0  0  0  0  0  0
    2.3577    0.1112    0.2019 P   0  0  0  0  0  0  0  0  0  0  0  0
    3.2812   -1.2307   -0.8973 S   0  0  0  0  0  0  0  0  0  0  0  0
    3.2370    1.1923    0.9567 O   0  0  0  0  0  0  0  0  0  0  0  0
    3.8176    2.3758    0.3781 C   0  0  0  0  0  0  0  0  0  0  0  0
    4.8065    2.0686   -0.7282 C   0  0  0  0  0  0  0  0  0  0  0  0
    0.9121    1.2952   -0.8062 S   0  0  0  0  0  0  0  0  0  0  0  0
    0.2924   -0.0003   -1.9049 C   0  0  0  0  0  0  0  0  0  0  0  0
   -0.5517   -1.3398   -1.0184 S   0  0  0  0  0  0  0  0  0  0  0  0
   -2.1748   -0.2084   -0.2791 P   0  0  0  0  0  0  0  0  0  0  0  0
   -2.8684    1.2131   -1.4419 S   0  0  0  0  0  0  0  0  0  0  0  0
   -1.6379    0.2301    1.1385 O   0  0  0  0  0  0  0  0  0  0  0  0
   -2.1602    1.3468    1.8941 C   0  0  0  0  0  0  0  0  0  0  0  0
   -1.0257    2.2907    2.2399 C   0  0  0  0  0  0  0  0  0  0  0  0
   -3.2240   -1.3316    0.1349 O   0  0  0  0  0  0  0  0  0  0  0  0
   -4.0647   -1.9993   -0.8302 C   0  0  0  0  0  0  0  0  0  0  0  0
   -5.4869   -1.4804   -0.7406 C   0  0  0  0  0  0  0  0  0  0  0  0
    0.3648   -3.1720    2.9905 H   0  0  0  0  0  0  0  0  0  0  0  0
    0.3090   -1.4756    3.5002 H   0  0  0  0  0  0  0  0  0  0  0  0
   -0.5369   -1.9845    2.0342 H   0  0  0  0  0  0  0  0  0  0  0  0
    1.6421   -2.4894    0.9348 H   0  0  0  0  0  0  0  0  0  0  0  0
    2.5013   -2.0605    2.4333 H   0  0  0  0  0  0  0  0  0  0  0  0
    3.0090    3.0134    0.0100 H   0  0  0  0  0  0  0  0  0  0  0  0
    4.3088    2.8563    1.2264 H   0  0  0  0  0  0  0  0  0  0  0  0
    4.2992    1.6082   -1.5743 H   0  0  0  0  0  0  0  0  0  0  0  0
    5.2732    2.9924   -1.0554 H   0  0  0  0  0  0  0  0  0  0  0  0
    5.5739    1.3853   -0.3728 H   0  0  0  0  0  0  0  0  0  0  0  0
    1.1244   -0.4644   -2.4351 H   0  0  0  0  0  0  0  0  0  0  0  0
   -0.4028    0.4819   -2.5914 H   0  0  0  0  0  0  0  0  0  0  0  0
   -2.9286    1.8538    1.3019 H   0  0  0  0  0  0  0  0  0  0  0  0
   -2.6127    0.9186    2.7906 H   0  0  0  0  0  0  0  0  0  0  0  0
   -0.6407    2.7630    1.3390 H   0  0  0  0  0  0  0  0  0  0  0  0
   -1.3915    3.0559    2.9169 H   0  0  0  0  0  0  0  0  0  0  0  0
   -0.2179    1.7410    2.7166 H   0  0  0  0  0  0  0  0  0  0  0  0
   -3.6575   -1.8471   -1.8337 H   0  0  0  0  0  0  0  0  0  0  0  0
   -4.0095   -3.0584   -0.5721 H   0  0  0  0  0  0  0  0  0  0  0  0
   -6.1154   -2.0462   -1.4210 H   0  0  0  0  0  0  0  0  0  0  0  0
   -5.8623   -1.5921    0.2726 H   0  0  0  0  0  0  0  0  0  0  0  0
   -5.5216   -0.4288   -1.0167 H   0  0  0  0  0  0  0  0  0  0  0  0
  1  2  1  0  0  0  0
  2  3  1  0  0  0  0
  3  4  2  0  0  0  0
  4  5  2  0  0  0  0
  4  6  2  0  0  0  0
  6  7  1  0  0  0  0
  7  8  1  0  0  0  0
  4  9  1  0  0  0  0
  9 10  1  0  0  0  0
 10 11  1  0  0  0  0
 11 12  1  0  0  0  0
 12 13  2  0  0  0  0
 12 14  2  0  0  0  0
 14 15  1  0  0  0  0
 15 16  1  0  0  0  0
 12 17  2  0  0  0  0
 17 18  1  0  0  0  0
 18 19  1  0  0  0  0
  1 20  1  0  0  0  0
  1 21  1  0  0  0  0
  1 22  1  0  0  0  0
  2 23  1  0  0  0  0
  2 24  1  0  0  0  0
  7 25  1  0  0  0  0
  7 26  1  0  0  0  0
  8 27  1  0  0  0  0
  8 28  1  0  0  0  0
  8 29  1  0  0  0  0
 10 30  1  0  0  0  0
 10 31  1  0  0  0  0
 15 32  1  0  0  0  0
 15 33  1  0  0  0  0
 16 34  1  0  0  0  0
 16 35  1  0  0  0  0
 16 36  1  0  0  0  0
 18 37  1  0  0  0  0
 18 38  1  0  0  0  0
 19 39  1  0  0  0  0
 19 40  1  0  0  0  0
 19 41  1  0  0  0  0
M  END
