 xtb: 6.7.1 (edcfbbe)
          04092505203D

 41 40  0     0  0            999 V2000
    4.0216   -0.9613   -2.2514 C   0  0  0  0  0  0  0  0  0  0  0  0
    4.6088   -0.0780   -1.1710 C   0  0  0  0  0  0  0  0  0  0  0  0
    3.5988    0.6056   -0.3867 O   0  0  0  0  0  0  0  0  0  0  0  0
    2.5180   -0.0803    0.5392 P   0  0  0  0  0  0  0  0  0  0  0  0
    2.0213    1.0924    2.0267 S   0  0  0  0  0  0  0  0  0  0  0  0
    3.2018   -1.4553    0.9429 O   0  0  0  0  0  0  0  0  0  0  0  0
    2.7801   -2.2017    2.0989 C   0  0  0  0  0  0  0  0  0  0  0  0
    1.3488   -2.6813    1.9743 C   0  0  0  0  0  0  0  0  0  0  0  0
    0.9470   -0.6582   -0.7925 S   0  0  0  0  0  0  0  0  0  0  0  0
    0.4257    1.0169   -1.2335 C   0  0  0  0  0  0  0  0  0  0  0  0
   -0.7223    1.7665   -0.0371 S   0  0  0  0  0  0  0  0  0  0  0  0
   -2.2745    0.3647   -0.3163 P   0  0  0  0  0  0  0  0  0  0  0  0
   -2.5618   -0.2931   -2.1437 S   0  0  0  0  0  0  0  0  0  0  0  0
   -3.5426    1.0372    0.3654 O   0  0  0  0  0  0  0  0  0  0  0  0
   -4.4592    1.8723   -0.3629 C   0  0  0  0  0  0  0  0  0  0  0  0
   -3.8337    3.1923   -0.7653 C   0  0  0  0  0  0  0  0  0  0  0  0
   -1.8676   -0.7184    0.7654 O   0  0  0  0  0  0  0  0  0  0  0  0
   -2.3163   -2.0880    0.6789 C   0  0  0  0  0  0  0  0  0  0  0  0
   -3.8121   -2.2054    0.8815 C   0  0  0  0  0  0  0  0  0  0  0  0
    3.3545   -0.3917   -2.8937 H   0  0  0  0  0  0  0  0  0  0  0  0
    4.8314   -1.3654   -2.8510 H   0  0  0  0  0  0  0  0  0  0  0  0
    3.4645   -1.7837   -1.8084 H   0  0  0  0  0  0  0  0  0  0  0  0
    5.1885    0.7440   -1.5941 H   0  0  0  0  0  0  0  0  0  0  0  0
    5.2308   -0.6598   -0.4888 H   0  0  0  0  0  0  0  0  0  0  0  0
    3.4844   -3.0335    2.1431 H   0  0  0  0  0  0  0  0  0  0  0  0
    2.8943   -1.5644    2.9811 H   0  0  0  0  0  0  0  0  0  0  0  0
    1.1084   -3.3201    2.8182 H   0  0  0  0  0  0  0  0  0  0  0  0
    0.6750   -1.8241    1.9759 H   0  0  0  0  0  0  0  0  0  0  0  0
    1.2119   -3.2342    1.0479 H   0  0  0  0  0  0  0  0  0  0  0  0
   -0.0722    0.9395   -2.1997 H   0  0  0  0  0  0  0  0  0  0  0  0
    1.2929    1.6728   -1.2826 H   0  0  0  0  0  0  0  0  0  0  0  0
   -4.7984    1.3231   -1.2473 H   0  0  0  0  0  0  0  0  0  0  0  0
   -5.2904    2.0145    0.3291 H   0  0  0  0  0  0  0  0  0  0  0  0
   -3.3977    3.6834    0.1013 H   0  0  0  0  0  0  0  0  0  0  0  0
   -3.0491    3.0240   -1.5019 H   0  0  0  0  0  0  0  0  0  0  0  0
   -4.5940    3.8334   -1.1999 H   0  0  0  0  0  0  0  0  0  0  0  0
   -2.0224   -2.4836   -0.2987 H   0  0  0  0  0  0  0  0  0  0  0  0
   -1.7598   -2.5962    1.4673 H   0  0  0  0  0  0  0  0  0  0  0  0
   -4.1032   -1.7279    1.8135 H   0  0  0  0  0  0  0  0  0  0  0  0
   -4.3364   -1.7206    0.0587 H   0  0  0  0  0  0  0  0  0  0  0  0
   -4.0902   -3.2543    0.9077 H   0  0  0  0  0  0  0  0  0  0  0  0
  1  2  1  0  0  0  0
  2  3  1  0  0  0  0
  3  4  2  0  0  0  0
  4  5  2  0  0  0  0
  4  6  2  0  0  0  0
  6  7  1  0  0  0  0
  7  8  1  0  0  0  0
  4  9  1  0  0  0  0
  9 10  1  0  0  0  0
 10 11  1  0  0  0  0
 11 12  1  0  0  0  0
 12 13  2  0  0  0  0
 12 14  2  0  0  0  0
 14 15  1  0  0  0  0
 15 16  1  0  0  0  0
 12 17  2  0  0  0  0
 17 18  1  0  0  0  0
 18 19  1  0  0  0  0
  1 20  1  0  0  0  0
  1 21  1  0  0  0  0
  1 22  1  0  0  0  0
  2 23  1  0  0  0  0
  2 24  1  0  0  0  0
  7 25  1  0  0  0  0
  7 26  1  0  0  0  0
  8 27  1  0  0  0  0
  8 28  1  0  0  0  0
  8 29  1  0  0  0  0
 10 30  1  0  0  0  0
 10 31  1  0  0  0  0
 15 32  1  0  0  0  0
 15 33  1  0  0  0  0
 16 34  1  0  0  0  0
 16 35  1  0  0  0  0
 16 36  1  0  0  0  0
 18 37  1  0  0  0  0
 18 38  1  0  0  0  0
 19 39  1  0  0  0  0
 19 40  1  0  0  0  0
 19 41  1  0  0  0  0
M  END
