 xtb: 6.7.1 (edcfbbe)
          04092505213D

 41 40  0     0  0            999 V2000
    1.6722   -1.3667   -2.5668 C   0  0  0  0  0  0  0  0  0  0  0  0
    3.0960   -1.1131   -2.1164 C   0  0  0  0  0  0  0  0  0  0  0  0
    3.2357   -1.1874   -0.6864 O   0  0  0  0  0  0  0  0  0  0  0  0
    2.6172   -0.1025    0.2961 P   0  0  0  0  0  0  0  0  0  0  0  0
    2.7597    1.7635   -0.2707 S   0  0  0  0  0  0  0  0  0  0  0  0
    3.4056   -0.3392    1.6423 O   0  0  0  0  0  0  0  0  0  0  0  0
    3.5051   -1.6184    2.3185 C   0  0  0  0  0  0  0  0  0  0  0  0
    4.7339   -2.3820    1.8695 C   0  0  0  0  0  0  0  0  0  0  0  0
    0.6628   -0.8363    0.7155 S   0  0  0  0  0  0  0  0  0  0  0  0
    0.0337    0.7157    1.4408 C   0  0  0  0  0  0  0  0  0  0  0  0
   -1.7497    0.6642    1.6400 S   0  0  0  0  0  0  0  0  0  0  0  0
   -2.3384    0.8307   -0.4144 P   0  0  0  0  0  0  0  0  0  0  0  0
   -0.9277    1.4372   -1.6315 S   0  0  0  0  0  0  0  0  0  0  0  0
   -3.5745    1.8013   -0.4274 O   0  0  0  0  0  0  0  0  0  0  0  0
   -4.9217    1.4559   -0.0138 C   0  0  0  0  0  0  0  0  0  0  0  0
   -4.9979    1.0651    1.4460 C   0  0  0  0  0  0  0  0  0  0  0  0
   -3.0063   -0.5654   -0.7775 O   0  0  0  0  0  0  0  0  0  0  0  0
   -2.2337   -1.7421   -1.0851 C   0  0  0  0  0  0  0  0  0  0  0  0
   -3.1713   -2.7584   -1.7043 C   0  0  0  0  0  0  0  0  0  0  0  0
    1.2909   -2.2793   -2.1148 H   0  0  0  0  0  0  0  0  0  0  0  0
    1.0341   -0.5307   -2.2808 H   0  0  0  0  0  0  0  0  0  0  0  0
    1.6498   -1.4609   -3.6477 H   0  0  0  0  0  0  0  0  0  0  0  0
    3.4349   -0.1268   -2.4479 H   0  0  0  0  0  0  0  0  0  0  0  0
    3.7766   -1.8830   -2.4832 H   0  0  0  0  0  0  0  0  0  0  0  0
    3.5666   -1.3555    3.3760 H   0  0  0  0  0  0  0  0  0  0  0  0
    2.5918   -2.1895    2.1283 H   0  0  0  0  0  0  0  0  0  0  0  0
    4.8229   -3.2871    2.4622 H   0  0  0  0  0  0  0  0  0  0  0  0
    4.6529   -2.6469    0.8191 H   0  0  0  0  0  0  0  0  0  0  0  0
    5.6224   -1.7724    2.0098 H   0  0  0  0  0  0  0  0  0  0  0  0
    0.3121    1.5370    0.7750 H   0  0  0  0  0  0  0  0  0  0  0  0
    0.4559    0.8521    2.4339 H   0  0  0  0  0  0  0  0  0  0  0  0
   -5.4823    2.3695   -0.2170 H   0  0  0  0  0  0  0  0  0  0  0  0
   -5.2770    0.6487   -0.6561 H   0  0  0  0  0  0  0  0  0  0  0  0
   -4.4377    0.1487    1.6228 H   0  0  0  0  0  0  0  0  0  0  0  0
   -4.5844    1.8509    2.0730 H   0  0  0  0  0  0  0  0  0  0  0  0
   -6.0369    0.9020    1.7149 H   0  0  0  0  0  0  0  0  0  0  0  0
   -1.4316   -1.4613   -1.7746 H   0  0  0  0  0  0  0  0  0  0  0  0
   -1.7882   -2.1166   -0.1587 H   0  0  0  0  0  0  0  0  0  0  0  0
   -3.6041   -2.3596   -2.6173 H   0  0  0  0  0  0  0  0  0  0  0  0
   -2.6133   -3.6592   -1.9365 H   0  0  0  0  0  0  0  0  0  0  0  0
   -3.9705   -2.9998   -1.0098 H   0  0  0  0  0  0  0  0  0  0  0  0
  1  2  1  0  0  0  0
  2  3  1  0  0  0  0
  3  4  2  0  0  0  0
  4  5  2  0  0  0  0
  4  6  2  0  0  0  0
  6  7  1  0  0  0  0
  7  8  1  0  0  0  0
  4  9  1  0  0  0  0
  9 10  1  0  0  0  0
 10 11  1  0  0  0  0
 11 12  1  0  0  0  0
 12 13  2  0  0  0  0
 12 14  2  0  0  0  0
 14 15  1  0  0  0  0
 15 16  1  0  0  0  0
 12 17  2  0  0  0  0
 17 18  1  0  0  0  0
 18 19  1  0  0  0  0
  1 20  1  0  0  0  0
  1 21  1  0  0  0  0
  1 22  1  0  0  0  0
  2 23  1  0  0  0  0
  2 24  1  0  0  0  0
  7 25  1  0  0  0  0
  7 26  1  0  0  0  0
  8 27  1  0  0  0  0
  8 28  1  0  0  0  0
  8 29  1  0  0  0  0
 10 30  1  0  0  0  0
 10 31  1  0  0  0  0
 15 32  1  0  0  0  0
 15 33  1  0  0  0  0
 16 34  1  0  0  0  0
 16 35  1  0  0  0  0
 16 36  1  0  0  0  0
 18 37  1  0  0  0  0
 18 38  1  0  0  0  0
 19 39  1  0  0  0  0
 19 40  1  0  0  0  0
 19 41  1  0  0  0  0
M  END
