41
 xtb: 6.7.1 (edcfbbe)
C            4.54834620709235       -2.42124314715390        0.13853353046720
C            4.90723307624751       -0.98052081313990       -0.12515865747308
O            3.82692569217316       -0.05983468526633        0.25950766873789
P            2.54160735478260        0.23129755095368       -0.66376562929285
S            2.77106279800414        0.11880733177655       -2.59321160396833
O            2.13302991977054        1.71556790827966       -0.21410774080050
C            1.46397673563820        2.06852733046456        1.05179922677446
C            2.33127542740336        1.84508362840230        2.26559731656949
S            1.13235781683513       -1.11399674413068        0.18152773570923
C           -0.17975537222463       -1.10509734643614       -1.10246626295034
S           -1.13154598994784        0.45459859059451       -1.35340988300721
P           -2.57901776656960        0.34866962223036        0.17327121962714
S           -3.89587702836451        1.76472669706943       -0.04931970449561
O           -1.65111227373095        0.37187112826296        1.48015367705712
C           -2.22832609992198        0.20489547986964        2.82418588319992
C           -1.15429318653268        0.59212127223067        3.80770095988513
O           -3.13954999982774       -1.15956078592903        0.24114451370942
C           -4.32646327980459       -1.60153832072791       -0.50371485954466
C           -4.04501368390000       -1.77431616672920       -1.97578090027131
H            3.74181763590461       -2.76377529218906       -0.51537917332420
H            5.43141634700113       -3.03832159622944       -0.05750076948762
H            4.25093065578268       -2.56785782528516        1.18107348428299
H            5.14920377591138       -0.80312155925268       -1.17723284961563
H            5.74675669015915       -0.65621112442023        0.49305612669255
H            1.23242166393679        3.12703407415842        0.91703777325539
H            0.52968744899582        1.50461675019767        1.10710643603617
H            3.29822259343309        2.34509775116168        2.15918681989554
H            1.81730670149168        2.27280733476585        3.13299101603568
H            2.49779551087542        0.78257044100148        2.46293329055596
H           -0.86309560276735       -1.91580381983188       -0.83428621581632
H            0.27274565083002       -1.32902764381014       -2.07283431709175
H           -3.10971935548227        0.84890931134528        2.91081737167450
H           -2.52860651625451       -0.84128408657231        2.93300292933300
H           -0.87584062334563        1.64299173298844        3.68794040982267
H           -1.53393600560207        0.44782340391779        4.82392811258571
H           -0.26440017084177       -0.03148902465104        3.67917647426434
H           -4.58233935100610       -2.55116848584996       -0.02953559855890
H           -5.13120627907477       -0.88283898592978       -0.32178128280528
H           -4.92549107456336       -2.22445421238068       -2.44577732573405
H           -3.85153535550623       -0.81594416265701       -2.46538395667194
H           -3.19020141820906       -2.43775162593390       -2.13792303364438
