 xtb: 6.7.1 (edcfbbe)
          04092505213D

 41 40  0     0  0            999 V2000
    4.6111    0.1240   -2.2850 C   0  0  0  0  0  0  0  0  0  0  0  0
    4.7613   -0.7477   -1.0552 C   0  0  0  0  0  0  0  0  0  0  0  0
    3.5020   -1.2945   -0.6277 O   0  0  0  0  0  0  0  0  0  0  0  0
    2.3576   -0.3935    0.0133 P   0  0  0  0  0  0  0  0  0  0  0  0
    3.0374    1.0147    1.2032 S   0  0  0  0  0  0  0  0  0  0  0  0
    1.4183   -1.5034    0.6434 O   0  0  0  0  0  0  0  0  0  0  0  0
    1.7869   -2.2253    1.8438 C   0  0  0  0  0  0  0  0  0  0  0  0
    1.1973   -1.5655    3.0745 C   0  0  0  0  0  0  0  0  0  0  0  0
    1.1415    0.2070   -1.5982 S   0  0  0  0  0  0  0  0  0  0  0  0
    0.2835    1.5418   -0.7087 C   0  0  0  0  0  0  0  0  0  0  0  0
   -0.6791    0.9627    0.7066 S   0  0  0  0  0  0  0  0  0  0  0  0
   -2.4164    0.3484   -0.3865 P   0  0  0  0  0  0  0  0  0  0  0  0
   -2.1712   -0.6074   -2.0743 S   0  0  0  0  0  0  0  0  0  0  0  0
   -3.2038    1.6839   -0.6769 O   0  0  0  0  0  0  0  0  0  0  0  0
   -3.6542    2.6000    0.3515 C   0  0  0  0  0  0  0  0  0  0  0  0
   -5.1081    2.3453    0.6937 C   0  0  0  0  0  0  0  0  0  0  0  0
   -3.2999   -0.3409    0.7394 O   0  0  0  0  0  0  0  0  0  0  0  0
   -2.8525   -1.3763    1.6335 C   0  0  0  0  0  0  0  0  0  0  0  0
   -2.1145   -2.4940    0.9268 C   0  0  0  0  0  0  0  0  0  0  0  0
    4.0881   -0.4170   -3.0698 H   0  0  0  0  0  0  0  0  0  0  0  0
    4.0410    1.0190   -2.0387 H   0  0  0  0  0  0  0  0  0  0  0  0
    5.5933    0.4181   -2.6408 H   0  0  0  0  0  0  0  0  0  0  0  0
    5.1883   -0.1735   -0.2263 H   0  0  0  0  0  0  0  0  0  0  0  0
    5.3752   -1.6269   -1.2555 H   0  0  0  0  0  0  0  0  0  0  0  0
    1.3809   -3.2268    1.6918 H   0  0  0  0  0  0  0  0  0  0  0  0
    2.8769   -2.2788    1.9080 H   0  0  0  0  0  0  0  0  0  0  0  0
    1.4436   -2.1584    3.9493 H   0  0  0  0  0  0  0  0  0  0  0  0
    1.6027   -0.5635    3.1969 H   0  0  0  0  0  0  0  0  0  0  0  0
    0.1180   -1.4932    2.9785 H   0  0  0  0  0  0  0  0  0  0  0  0
   -0.3718    2.0208   -1.4335 H   0  0  0  0  0  0  0  0  0  0  0  0
    1.0208    2.2392   -0.3121 H   0  0  0  0  0  0  0  0  0  0  0  0
   -3.0129    2.4919    1.2307 H   0  0  0  0  0  0  0  0  0  0  0  0
   -3.5183    3.5911   -0.0853 H   0  0  0  0  0  0  0  0  0  0  0  0
   -5.7194    2.4257   -0.2009 H   0  0  0  0  0  0  0  0  0  0  0  0
   -5.2288    1.3489    1.1098 H   0  0  0  0  0  0  0  0  0  0  0  0
   -5.4364    3.0815    1.4207 H   0  0  0  0  0  0  0  0  0  0  0  0
   -2.2192   -0.9093    2.3937 H   0  0  0  0  0  0  0  0  0  0  0  0
   -3.7741   -1.7386    2.0928 H   0  0  0  0  0  0  0  0  0  0  0  0
   -1.1813   -2.1248    0.5009 H   0  0  0  0  0  0  0  0  0  0  0  0
   -1.8914   -3.2848    1.6364 H   0  0  0  0  0  0  0  0  0  0  0  0
   -2.7215   -2.8963    0.1189 H   0  0  0  0  0  0  0  0  0  0  0  0
  1  2  1  0  0  0  0
  2  3  1  0  0  0  0
  3  4  2  0  0  0  0
  4  5  2  0  0  0  0
  4  6  2  0  0  0  0
  6  7  1  0  0  0  0
  7  8  1  0  0  0  0
  4  9  1  0  0  0  0
  9 10  1  0  0  0  0
 10 11  1  0  0  0  0
 11 12  1  0  0  0  0
 12 13  2  0  0  0  0
 12 14  2  0  0  0  0
 14 15  1  0  0  0  0
 15 16  1  0  0  0  0
 12 17  2  0  0  0  0
 17 18  1  0  0  0  0
 18 19  1  0  0  0  0
  1 20  1  0  0  0  0
  1 21  1  0  0  0  0
  1 22  1  0  0  0  0
  2 23  1  0  0  0  0
  2 24  1  0  0  0  0
  7 25  1  0  0  0  0
  7 26  1  0  0  0  0
  8 27  1  0  0  0  0
  8 28  1  0  0  0  0
  8 29  1  0  0  0  0
 10 30  1  0  0  0  0
 10 31  1  0  0  0  0
 15 32  1  0  0  0  0
 15 33  1  0  0  0  0
 16 34  1  0  0  0  0
 16 35  1  0  0  0  0
 16 36  1  0  0  0  0
 18 37  1  0  0  0  0
 18 38  1  0  0  0  0
 19 39  1  0  0  0  0
 19 40  1  0  0  0  0
 19 41  1  0  0  0  0
M  END
