 xtb: 6.7.1 (edcfbbe)
          04092505213D

 41 40  0     0  0            999 V2000
    4.7650   -2.0182    0.0040 C   0  0  0  0  0  0  0  0  0  0  0  0
    4.2537   -1.6801   -1.3814 C   0  0  0  0  0  0  0  0  0  0  0  0
    2.8293   -1.4551   -1.3956 O   0  0  0  0  0  0  0  0  0  0  0  0
    2.1574   -0.2508   -0.6152 P   0  0  0  0  0  0  0  0  0  0  0  0
    3.1633    1.4309   -0.5158 S   0  0  0  0  0  0  0  0  0  0  0  0
    1.7875   -0.8941    0.7935 O   0  0  0  0  0  0  0  0  0  0  0  0
    1.8814   -0.2296    2.0701 C   0  0  0  0  0  0  0  0  0  0  0  0
    0.7867   -0.7577    2.9742 C   0  0  0  0  0  0  0  0  0  0  0  0
    0.3837   -0.2430   -1.7672 S   0  0  0  0  0  0  0  0  0  0  0  0
   -0.1379    1.4372   -1.3238 C   0  0  0  0  0  0  0  0  0  0  0  0
   -0.5862    1.5716    0.4205 S   0  0  0  0  0  0  0  0  0  0  0  0
   -2.3057    0.3155    0.3202 P   0  0  0  0  0  0  0  0  0  0  0  0
   -3.3342    0.4259   -1.3509 S   0  0  0  0  0  0  0  0  0  0  0  0
   -3.0421    0.6343    1.6840 O   0  0  0  0  0  0  0  0  0  0  0  0
   -3.3311    1.9517    2.1890 C   0  0  0  0  0  0  0  0  0  0  0  0
   -4.1123    2.7980    1.2051 C   0  0  0  0  0  0  0  0  0  0  0  0
   -1.8242   -1.1455    0.6945 O   0  0  0  0  0  0  0  0  0  0  0  0
   -1.9626   -2.3058   -0.1503 C   0  0  0  0  0  0  0  0  0  0  0  0
   -0.7776   -3.2204    0.0833 C   0  0  0  0  0  0  0  0  0  0  0  0
    4.2012   -2.8486    0.4212 H   0  0  0  0  0  0  0  0  0  0  0  0
    5.8150   -2.2877   -0.0561 H   0  0  0  0  0  0  0  0  0  0  0  0
    4.6611   -1.1519    0.6571 H   0  0  0  0  0  0  0  0  0  0  0  0
    4.3924   -2.5075   -2.0785 H   0  0  0  0  0  0  0  0  0  0  0  0
    4.7479   -0.7826   -1.7663 H   0  0  0  0  0  0  0  0  0  0  0  0
    2.8690   -0.4553    2.4805 H   0  0  0  0  0  0  0  0  0  0  0  0
    1.7975    0.8512    1.9231 H   0  0  0  0  0  0  0  0  0  0  0  0
    0.8698   -0.2797    3.9447 H   0  0  0  0  0  0  0  0  0  0  0  0
   -0.1935   -0.5440    2.5546 H   0  0  0  0  0  0  0  0  0  0  0  0
    0.8887   -1.8327    3.0908 H   0  0  0  0  0  0  0  0  0  0  0  0
   -1.0041    1.6691   -1.9437 H   0  0  0  0  0  0  0  0  0  0  0  0
    0.6792    2.1371   -1.4970 H   0  0  0  0  0  0  0  0  0  0  0  0
   -3.9092    1.7560    3.0939 H   0  0  0  0  0  0  0  0  0  0  0  0
   -2.3853    2.4345    2.4502 H   0  0  0  0  0  0  0  0  0  0  0  0
   -4.3843    3.7382    1.6739 H   0  0  0  0  0  0  0  0  0  0  0  0
   -3.5084    3.0040    0.3224 H   0  0  0  0  0  0  0  0  0  0  0  0
   -5.0142    2.2782    0.8905 H   0  0  0  0  0  0  0  0  0  0  0  0
   -2.8985   -2.7958    0.1288 H   0  0  0  0  0  0  0  0  0  0  0  0
   -2.0259   -1.9883   -1.1963 H   0  0  0  0  0  0  0  0  0  0  0  0
   -0.7200   -3.4895    1.1339 H   0  0  0  0  0  0  0  0  0  0  0  0
   -0.9022   -4.1176   -0.5141 H   0  0  0  0  0  0  0  0  0  0  0  0
    0.1484   -2.7285   -0.2057 H   0  0  0  0  0  0  0  0  0  0  0  0
  1  2  1  0  0  0  0
  2  3  1  0  0  0  0
  3  4  2  0  0  0  0
  4  5  2  0  0  0  0
  4  6  2  0  0  0  0
  6  7  1  0  0  0  0
  7  8  1  0  0  0  0
  4  9  1  0  0  0  0
  9 10  1  0  0  0  0
 10 11  1  0  0  0  0
 11 12  1  0  0  0  0
 12 13  2  0  0  0  0
 12 14  2  0  0  0  0
 14 15  1  0  0  0  0
 15 16  1  0  0  0  0
 12 17  2  0  0  0  0
 17 18  1  0  0  0  0
 18 19  1  0  0  0  0
  1 20  1  0  0  0  0
  1 21  1  0  0  0  0
  1 22  1  0  0  0  0
  2 23  1  0  0  0  0
  2 24  1  0  0  0  0
  7 25  1  0  0  0  0
  7 26  1  0  0  0  0
  8 27  1  0  0  0  0
  8 28  1  0  0  0  0
  8 29  1  0  0  0  0
 10 30  1  0  0  0  0
 10 31  1  0  0  0  0
 15 32  1  0  0  0  0
 15 33  1  0  0  0  0
 16 34  1  0  0  0  0
 16 35  1  0  0  0  0
 16 36  1  0  0  0  0
 18 37  1  0  0  0  0
 18 38  1  0  0  0  0
 19 39  1  0  0  0  0
 19 40  1  0  0  0  0
 19 41  1  0  0  0  0
M  END
