 xtb: 6.7.1 (edcfbbe)
          04092505213D

 41 40  0     0  0            999 V2000
    1.2198   -0.3545   -3.0873 C   0  0  0  0  0  0  0  0  0  0  0  0
    2.2969    0.3569   -2.2927 C   0  0  0  0  0  0  0  0  0  0  0  0
    2.7996   -0.4985   -1.2503 O   0  0  0  0  0  0  0  0  0  0  0  0
    2.4697   -0.3419    0.2829 P   0  0  0  0  0  0  0  0  0  0  0  0
    2.5824    1.4556    1.0678 S   0  0  0  0  0  0  0  0  0  0  0  0
    3.5858   -1.3530    0.7670 O   0  0  0  0  0  0  0  0  0  0  0  0
    3.7825   -1.6022    2.1737 C   0  0  0  0  0  0  0  0  0  0  0  0
    5.1478   -2.2364    2.3465 C   0  0  0  0  0  0  0  0  0  0  0  0
    0.6522   -1.3932    0.6482 S   0  0  0  0  0  0  0  0  0  0  0  0
   -0.1480   -0.2593    1.8406 C   0  0  0  0  0  0  0  0  0  0  0  0
   -1.9337   -0.2075    1.6188 S   0  0  0  0  0  0  0  0  0  0  0  0
   -1.9608    0.5619   -0.3705 P   0  0  0  0  0  0  0  0  0  0  0  0
   -0.6032    1.9104   -0.7807 S   0  0  0  0  0  0  0  0  0  0  0  0
   -3.4681    1.0349   -0.5228 O   0  0  0  0  0  0  0  0  0  0  0  0
   -3.9595    2.1987    0.1743 C   0  0  0  0  0  0  0  0  0  0  0  0
   -5.3033    2.5627   -0.4233 C   0  0  0  0  0  0  0  0  0  0  0  0
   -1.8808   -0.6754   -1.3384 O   0  0  0  0  0  0  0  0  0  0  0  0
   -2.7954   -1.8004   -1.2756 C   0  0  0  0  0  0  0  0  0  0  0  0
   -3.9011   -1.6436   -2.2984 C   0  0  0  0  0  0  0  0  0  0  0  0
    0.9438    0.2607   -3.9377 H   0  0  0  0  0  0  0  0  0  0  0  0
    1.5898   -1.3147   -3.4351 H   0  0  0  0  0  0  0  0  0  0  0  0
    0.3359   -0.5155   -2.4732 H   0  0  0  0  0  0  0  0  0  0  0  0
    1.9200    1.2886   -1.8570 H   0  0  0  0  0  0  0  0  0  0  0  0
    3.1652    0.5782   -2.9166 H   0  0  0  0  0  0  0  0  0  0  0  0
    3.7129   -0.6504    2.7127 H   0  0  0  0  0  0  0  0  0  0  0  0
    2.9876   -2.2712    2.5168 H   0  0  0  0  0  0  0  0  0  0  0  0
    5.9196   -1.5587    1.9934 H   0  0  0  0  0  0  0  0  0  0  0  0
    5.3111   -2.4517    3.3973 H   0  0  0  0  0  0  0  0  0  0  0  0
    5.2015   -3.1580    1.7744 H   0  0  0  0  0  0  0  0  0  0  0  0
    0.2770    0.7393    1.7009 H   0  0  0  0  0  0  0  0  0  0  0  0
    0.0199   -0.6221    2.8515 H   0  0  0  0  0  0  0  0  0  0  0  0
   -4.0466    1.9500    1.2353 H   0  0  0  0  0  0  0  0  0  0  0  0
   -3.2326    3.0088    0.0547 H   0  0  0  0  0  0  0  0  0  0  0  0
   -5.6943    3.4362    0.0878 H   0  0  0  0  0  0  0  0  0  0  0  0
   -5.1937    2.7862   -1.4808 H   0  0  0  0  0  0  0  0  0  0  0  0
   -5.9985    1.7368   -0.3058 H   0  0  0  0  0  0  0  0  0  0  0  0
   -2.1707   -2.6701   -1.4866 H   0  0  0  0  0  0  0  0  0  0  0  0
   -3.1977   -1.8731   -0.2615 H   0  0  0  0  0  0  0  0  0  0  0  0
   -4.5367   -2.5230   -2.2697 H   0  0  0  0  0  0  0  0  0  0  0  0
   -4.4961   -0.7620   -2.0761 H   0  0  0  0  0  0  0  0  0  0  0  0
   -3.4775   -1.5388   -3.2933 H   0  0  0  0  0  0  0  0  0  0  0  0
  1  2  1  0  0  0  0
  2  3  1  0  0  0  0
  3  4  2  0  0  0  0
  4  5  2  0  0  0  0
  4  6  2  0  0  0  0
  6  7  1  0  0  0  0
  7  8  1  0  0  0  0
  4  9  1  0  0  0  0
  9 10  1  0  0  0  0
 10 11  1  0  0  0  0
 11 12  1  0  0  0  0
 12 13  2  0  0  0  0
 12 14  2  0  0  0  0
 14 15  1  0  0  0  0
 15 16  1  0  0  0  0
 12 17  2  0  0  0  0
 17 18  1  0  0  0  0
 18 19  1  0  0  0  0
  1 20  1  0  0  0  0
  1 21  1  0  0  0  0
  1 22  1  0  0  0  0
  2 23  1  0  0  0  0
  2 24  1  0  0  0  0
  7 25  1  0  0  0  0
  7 26  1  0  0  0  0
  8 27  1  0  0  0  0
  8 28  1  0  0  0  0
  8 29  1  0  0  0  0
 10 30  1  0  0  0  0
 10 31  1  0  0  0  0
 15 32  1  0  0  0  0
 15 33  1  0  0  0  0
 16 34  1  0  0  0  0
 16 35  1  0  0  0  0
 16 36  1  0  0  0  0
 18 37  1  0  0  0  0
 18 38  1  0  0  0  0
 19 39  1  0  0  0  0
 19 40  1  0  0  0  0
 19 41  1  0  0  0  0
M  END
