 xtb: 6.7.1 (edcfbbe)
          04092505213D

 41 40  0     0  0            999 V2000
    3.0602   -0.9403   -3.0412 C   0  0  0  0  0  0  0  0  0  0  0  0
    3.7296   -1.3452   -1.7455 C   0  0  0  0  0  0  0  0  0  0  0  0
    3.4404   -0.4519   -0.6551 O   0  0  0  0  0  0  0  0  0  0  0  0
    2.0000    0.1180   -0.2814 P   0  0  0  0  0  0  0  0  0  0  0  0
    1.4380    1.6526   -1.3572 S   0  0  0  0  0  0  0  0  0  0  0  0
    2.1886    0.5303    1.2273 O   0  0  0  0  0  0  0  0  0  0  0  0
    2.9023   -0.2623    2.2123 C   0  0  0  0  0  0  0  0  0  0  0  0
    4.3178    0.2516    2.3750 C   0  0  0  0  0  0  0  0  0  0  0  0
    0.8614   -1.7044   -0.2518 S   0  0  0  0  0  0  0  0  0  0  0  0
   -0.1732   -1.5561    1.2431 C   0  0  0  0  0  0  0  0  0  0  0  0
   -1.9429   -1.4965    0.8859 S   0  0  0  0  0  0  0  0  0  0  0  0
   -1.9529    0.5207    0.2223 P   0  0  0  0  0  0  0  0  0  0  0  0
   -0.9403    1.7139    1.4048 S   0  0  0  0  0  0  0  0  0  0  0  0
   -3.4815    0.8835    0.0085 O   0  0  0  0  0  0  0  0  0  0  0  0
   -4.3207    1.3764    1.0703 C   0  0  0  0  0  0  0  0  0  0  0  0
   -4.5364    0.3473    2.1603 C   0  0  0  0  0  0  0  0  0  0  0  0
   -1.3919    0.5063   -1.2492 O   0  0  0  0  0  0  0  0  0  0  0  0
   -2.1159    0.1554   -2.4542 C   0  0  0  0  0  0  0  0  0  0  0  0
   -2.5228   -1.3030   -2.4821 C   0  0  0  0  0  0  0  0  0  0  0  0
    1.9770   -0.9803   -2.9266 H   0  0  0  0  0  0  0  0  0  0  0  0
    3.3365    0.0762   -3.3119 H   0  0  0  0  0  0  0  0  0  0  0  0
    3.3595   -1.6214   -3.8312 H   0  0  0  0  0  0  0  0  0  0  0  0
    4.8170   -1.3063   -1.8301 H   0  0  0  0  0  0  0  0  0  0  0  0
    3.4144   -2.3499   -1.4493 H   0  0  0  0  0  0  0  0  0  0  0  0
    2.3281   -0.1376    3.1329 H   0  0  0  0  0  0  0  0  0  0  0  0
    2.8969   -1.3108    1.9043 H   0  0  0  0  0  0  0  0  0  0  0  0
    4.8120   -0.3129    3.1595 H   0  0  0  0  0  0  0  0  0  0  0  0
    4.8680    0.1382    1.4447 H   0  0  0  0  0  0  0  0  0  0  0  0
    4.3008    1.3043    2.6438 H   0  0  0  0  0  0  0  0  0  0  0  0
    0.1012   -0.6487    1.7834 H   0  0  0  0  0  0  0  0  0  0  0  0
   -0.0074   -2.4504    1.8375 H   0  0  0  0  0  0  0  0  0  0  0  0
   -3.8610    2.2808    1.4801 H   0  0  0  0  0  0  0  0  0  0  0  0
   -5.2527    1.6300    0.5628 H   0  0  0  0  0  0  0  0  0  0  0  0
   -5.2795    0.7193    2.8583 H   0  0  0  0  0  0  0  0  0  0  0  0
   -4.8787   -0.5924    1.7343 H   0  0  0  0  0  0  0  0  0  0  0  0
   -3.6052    0.1732    2.6968 H   0  0  0  0  0  0  0  0  0  0  0  0
   -2.9850    0.8110   -2.5315 H   0  0  0  0  0  0  0  0  0  0  0  0
   -1.3994    0.3945   -3.2426 H   0  0  0  0  0  0  0  0  0  0  0  0
   -3.2703   -1.5042   -1.7174 H   0  0  0  0  0  0  0  0  0  0  0  0
   -2.9434   -1.5292   -3.4569 H   0  0  0  0  0  0  0  0  0  0  0  0
   -1.6597   -1.9425   -2.3097 H   0  0  0  0  0  0  0  0  0  0  0  0
  1  2  1  0  0  0  0
  2  3  1  0  0  0  0
  3  4  2  0  0  0  0
  4  5  2  0  0  0  0
  4  6  2  0  0  0  0
  6  7  1  0  0  0  0
  7  8  1  0  0  0  0
  4  9  1  0  0  0  0
  9 10  1  0  0  0  0
 10 11  1  0  0  0  0
 11 12  1  0  0  0  0
 12 13  2  0  0  0  0
 12 14  2  0  0  0  0
 14 15  1  0  0  0  0
 15 16  1  0  0  0  0
 12 17  2  0  0  0  0
 17 18  1  0  0  0  0
 18 19  1  0  0  0  0
  1 20  1  0  0  0  0
  1 21  1  0  0  0  0
  1 22  1  0  0  0  0
  2 23  1  0  0  0  0
  2 24  1  0  0  0  0
  7 25  1  0  0  0  0
  7 26  1  0  0  0  0
  8 27  1  0  0  0  0
  8 28  1  0  0  0  0
  8 29  1  0  0  0  0
 10 30  1  0  0  0  0
 10 31  1  0  0  0  0
 15 32  1  0  0  0  0
 15 33  1  0  0  0  0
 16 34  1  0  0  0  0
 16 35  1  0  0  0  0
 16 36  1  0  0  0  0
 18 37  1  0  0  0  0
 18 38  1  0  0  0  0
 19 39  1  0  0  0  0
 19 40  1  0  0  0  0
 19 41  1  0  0  0  0
M  END
