 xtb: 6.7.1 (edcfbbe)
          04092505213D

 41 40  0     0  0            999 V2000
    2.8041    1.8830   -2.0138 C   0  0  0  0  0  0  0  0  0  0  0  0
    3.4802    2.0352   -0.6657 C   0  0  0  0  0  0  0  0  0  0  0  0
    3.5118    0.7920    0.0579 O   0  0  0  0  0  0  0  0  0  0  0  0
    2.2731    0.2698    0.9068 P   0  0  0  0  0  0  0  0  0  0  0  0
    1.3496    1.6365    1.9551 S   0  0  0  0  0  0  0  0  0  0  0  0
    2.9232   -0.8268    1.8349 O   0  0  0  0  0  0  0  0  0  0  0  0
    3.9069   -1.8036    1.4002 C   0  0  0  0  0  0  0  0  0  0  0  0
    3.2677   -3.1616    1.1869 C   0  0  0  0  0  0  0  0  0  0  0  0
    1.1169   -0.8057   -0.5375 S   0  0  0  0  0  0  0  0  0  0  0  0
   -0.0740   -1.5270    0.6240 C   0  0  0  0  0  0  0  0  0  0  0  0
   -1.4235   -0.4058    1.0753 S   0  0  0  0  0  0  0  0  0  0  0  0
   -2.1767   -0.1396   -0.9047 P   0  0  0  0  0  0  0  0  0  0  0  0
   -1.9461   -1.6506   -2.1265 S   0  0  0  0  0  0  0  0  0  0  0  0
   -1.4759    1.1293   -1.5234 O   0  0  0  0  0  0  0  0  0  0  0  0
   -1.1464    2.3763   -0.8653 C   0  0  0  0  0  0  0  0  0  0  0  0
   -2.3173    3.0227   -0.1585 C   0  0  0  0  0  0  0  0  0  0  0  0
   -3.6616    0.3727   -0.6740 O   0  0  0  0  0  0  0  0  0  0  0  0
   -4.6438   -0.2490    0.1739 C   0  0  0  0  0  0  0  0  0  0  0  0
   -4.8616   -1.7128   -0.1474 C   0  0  0  0  0  0  0  0  0  0  0  0
    2.8790    2.8189   -2.5579 H   0  0  0  0  0  0  0  0  0  0  0  0
    3.2824    1.0943   -2.5886 H   0  0  0  0  0  0  0  0  0  0  0  0
    1.7525    1.6298   -1.8900 H   0  0  0  0  0  0  0  0  0  0  0  0
    2.9701    2.7836   -0.0500 H   0  0  0  0  0  0  0  0  0  0  0  0
    4.5318    2.3041   -0.7771 H   0  0  0  0  0  0  0  0  0  0  0  0
    4.3908   -1.4418    0.4923 H   0  0  0  0  0  0  0  0  0  0  0  0
    4.6299   -1.8327    2.2170 H   0  0  0  0  0  0  0  0  0  0  0  0
    2.5871   -3.1423    0.3390 H   0  0  0  0  0  0  0  0  0  0  0  0
    4.0496   -3.8886    0.9903 H   0  0  0  0  0  0  0  0  0  0  0  0
    2.7211   -3.4633    2.0765 H   0  0  0  0  0  0  0  0  0  0  0  0
    0.4260   -1.7993    1.5515 H   0  0  0  0  0  0  0  0  0  0  0  0
   -0.4915   -2.3979    0.1193 H   0  0  0  0  0  0  0  0  0  0  0  0
   -0.3341    2.1886   -0.1554 H   0  0  0  0  0  0  0  0  0  0  0  0
   -0.7818    2.9974   -1.6852 H   0  0  0  0  0  0  0  0  0  0  0  0
   -2.0134    4.0074    0.1837 H   0  0  0  0  0  0  0  0  0  0  0  0
   -3.1630    3.1174   -0.8346 H   0  0  0  0  0  0  0  0  0  0  0  0
   -2.6129    2.4318    0.7060 H   0  0  0  0  0  0  0  0  0  0  0  0
   -4.3253   -0.1249    1.2131 H   0  0  0  0  0  0  0  0  0  0  0  0
   -5.5464    0.3369   -0.0085 H   0  0  0  0  0  0  0  0  0  0  0  0
   -5.1051   -1.8376   -1.1998 H   0  0  0  0  0  0  0  0  0  0  0  0
   -3.9590   -2.2839    0.0646 H   0  0  0  0  0  0  0  0  0  0  0  0
   -5.6753   -2.0971    0.4592 H   0  0  0  0  0  0  0  0  0  0  0  0
  1  2  1  0  0  0  0
  2  3  1  0  0  0  0
  3  4  2  0  0  0  0
  4  5  2  0  0  0  0
  4  6  2  0  0  0  0
  6  7  1  0  0  0  0
  7  8  1  0  0  0  0
  4  9  1  0  0  0  0
  9 10  1  0  0  0  0
 10 11  1  0  0  0  0
 11 12  1  0  0  0  0
 12 13  2  0  0  0  0
 12 14  2  0  0  0  0
 14 15  1  0  0  0  0
 15 16  1  0  0  0  0
 12 17  2  0  0  0  0
 17 18  1  0  0  0  0
 18 19  1  0  0  0  0
  1 20  1  0  0  0  0
  1 21  1  0  0  0  0
  1 22  1  0  0  0  0
  2 23  1  0  0  0  0
  2 24  1  0  0  0  0
  7 25  1  0  0  0  0
  7 26  1  0  0  0  0
  8 27  1  0  0  0  0
  8 28  1  0  0  0  0
  8 29  1  0  0  0  0
 10 30  1  0  0  0  0
 10 31  1  0  0  0  0
 15 32  1  0  0  0  0
 15 33  1  0  0  0  0
 16 34  1  0  0  0  0
 16 35  1  0  0  0  0
 16 36  1  0  0  0  0
 18 37  1  0  0  0  0
 18 38  1  0  0  0  0
 19 39  1  0  0  0  0
 19 40  1  0  0  0  0
 19 41  1  0  0  0  0
M  END
