 xtb: 6.7.1 (edcfbbe)
          04032520453D

 22 24  0     0  0            999 V2000
    4.3762    1.3923   -0.0001 C   0  0  0  0  0  0  0  0  0  0  0  0
    3.0994    1.9318    0.0002 C   0  0  0  0  0  0  0  0  0  0  0  0
    1.9933    1.1001    0.0005 C   0  0  0  0  0  0  0  0  0  0  0  0
    2.1618   -0.2834    0.0005 C   0  0  0  0  0  0  0  0  0  0  0  0
    3.4316   -0.8315    0.0002 C   0  0  0  0  0  0  0  0  0  0  0  0
    4.5306    0.0170   -0.0001 C   0  0  0  0  0  0  0  0  0  0  0  0
    6.1183   -0.6728   -0.0004 Cl  0  0  0  0  0  0  0  0  0  0  0  0
    1.0862   -1.1488    0.0008 O   0  0  0  0  0  0  0  0  0  0  0  0
   -0.1448   -0.5688    0.0006 C   0  0  0  0  0  0  0  0  0  0  0  0
   -0.3146    0.8201    0.0006 C   0  0  0  0  0  0  0  0  0  0  0  0
   -1.5987    1.3559    0.0004 C   0  0  0  0  0  0  0  0  0  0  0  0
   -2.7159    0.5202    0.0002 C   0  0  0  0  0  0  0  0  0  0  0  0
   -2.5467   -0.8593    0.0002 C   0  0  0  0  0  0  0  0  0  0  0  0
   -1.2602   -1.3996    0.0004 C   0  0  0  0  0  0  0  0  0  0  0  0
   -1.0233   -3.0996    0.0005 Cl  0  0  0  0  0  0  0  0  0  0  0  0
   -3.9107   -1.8988    0.0000 Cl  0  0  0  0  0  0  0  0  0  0  0  0
   -4.2910    1.1984   -0.0001 Cl  0  0  0  0  0  0  0  0  0  0  0  0
   -1.7807    3.0621    0.0004 Cl  0  0  0  0  0  0  0  0  0  0  0  0
    0.7382    1.6790    0.0008 O   0  0  0  0  0  0  0  0  0  0  0  0
    5.2382    2.0372   -0.0003 H   0  0  0  0  0  0  0  0  0  0  0  0
    2.9441    2.9973    0.0002 H   0  0  0  0  0  0  0  0  0  0  0  0
    3.5415   -1.9025    0.0003 H   0  0  0  0  0  0  0  0  0  0  0  0
  1  2  4  0  0  0  0
  2  3  4  0  0  0  0
  3  4  4  0  0  0  0
  4  5  4  0  0  0  0
  1  6  4  0  0  0  0
  5  6  4  0  0  0  0
  6  7  1  0  0  0  0
  4  8  1  0  0  0  0
  8  9  1  0  0  0  0
  9 10  4  0  0  0  0
 10 11  4  0  0  0  0
 11 12  4  0  0  0  0
 12 13  4  0  0  0  0
  9 14  4  0  0  0  0
 13 14  4  0  0  0  0
 14 15  1  0  0  0  0
 13 16  1  0  0  0  0
 12 17  1  0  0  0  0
 11 18  1  0  0  0  0
  3 19  1  0  0  0  0
 10 19  1  0  0  0  0
  1 20  1  0  0  0  0
  2 21  1  0  0  0  0
  5 22  1  0  0  0  0
M  END
