 xtb: 6.7.1 (edcfbbe)
          04092505213D

 41 40  0     0  0            999 V2000
    1.6829   -0.9207   -3.5567 C   0  0  0  0  0  0  0  0  0  0  0  0
    2.1998   -1.3249   -2.1918 C   0  0  0  0  0  0  0  0  0  0  0  0
    2.3333   -0.1182   -1.3972 O   0  0  0  0  0  0  0  0  0  0  0  0
    2.3945   -0.1341    0.1745 P   0  0  0  0  0  0  0  0  0  0  0  0
    2.6480    1.6333    0.9673 S   0  0  0  0  0  0  0  0  0  0  0  0
    3.5996   -1.1545    0.4093 O   0  0  0  0  0  0  0  0  0  0  0  0
    4.3299   -1.2389    1.6454 C   0  0  0  0  0  0  0  0  0  0  0  0
    3.4585   -1.6658    2.8090 C   0  0  0  0  0  0  0  0  0  0  0  0
    0.6863   -1.2475    0.8083 S   0  0  0  0  0  0  0  0  0  0  0  0
   -0.1374    0.0058    1.8477 C   0  0  0  0  0  0  0  0  0  0  0  0
   -1.9264    0.0119    1.6396 S   0  0  0  0  0  0  0  0  0  0  0  0
   -2.0848    0.7640   -0.3545 P   0  0  0  0  0  0  0  0  0  0  0  0
   -0.4606    1.5449   -1.1225 S   0  0  0  0  0  0  0  0  0  0  0  0
   -3.2766    1.7840   -0.3406 O   0  0  0  0  0  0  0  0  0  0  0  0
   -4.6169    1.4632    0.1260 C   0  0  0  0  0  0  0  0  0  0  0  0
   -4.8603    2.0718    1.4921 C   0  0  0  0  0  0  0  0  0  0  0  0
   -2.7157   -0.4466   -1.1760 O   0  0  0  0  0  0  0  0  0  0  0  0
   -1.9564   -1.6162   -1.5364 C   0  0  0  0  0  0  0  0  0  0  0  0
   -2.7534   -2.3850   -2.5703 C   0  0  0  0  0  0  0  0  0  0  0  0
    1.5152   -1.8092   -4.1565 H   0  0  0  0  0  0  0  0  0  0  0  0
    0.7516   -0.3684   -3.4528 H   0  0  0  0  0  0  0  0  0  0  0  0
    2.4036   -0.2770   -4.0524 H   0  0  0  0  0  0  0  0  0  0  0  0
    3.1836   -1.7943   -2.2526 H   0  0  0  0  0  0  0  0  0  0  0  0
    1.5078   -2.0025   -1.6811 H   0  0  0  0  0  0  0  0  0  0  0  0
    5.1091   -1.9726    1.4338 H   0  0  0  0  0  0  0  0  0  0  0  0
    4.7807   -0.2617    1.8435 H   0  0  0  0  0  0  0  0  0  0  0  0
    2.9172   -2.5766    2.5654 H   0  0  0  0  0  0  0  0  0  0  0  0
    4.0847   -1.8387    3.6784 H   0  0  0  0  0  0  0  0  0  0  0  0
    2.7453   -0.8762    3.0426 H   0  0  0  0  0  0  0  0  0  0  0  0
    0.2784    0.9847    1.5968 H   0  0  0  0  0  0  0  0  0  0  0  0
    0.0327   -0.2392    2.8934 H   0  0  0  0  0  0  0  0  0  0  0  0
   -5.2760    1.8995   -0.6263 H   0  0  0  0  0  0  0  0  0  0  0  0
   -4.7405    0.3797    0.1419 H   0  0  0  0  0  0  0  0  0  0  0  0
   -4.2149    1.6123    2.2367 H   0  0  0  0  0  0  0  0  0  0  0  0
   -4.6613    3.1397    1.4639 H   0  0  0  0  0  0  0  0  0  0  0  0
   -5.8965    1.9084    1.7710 H   0  0  0  0  0  0  0  0  0  0  0  0
   -0.9898   -1.2924   -1.9349 H   0  0  0  0  0  0  0  0  0  0  0  0
   -1.7866   -2.2114   -0.6338 H   0  0  0  0  0  0  0  0  0  0  0  0
   -3.7153   -2.6742   -2.1577 H   0  0  0  0  0  0  0  0  0  0  0  0
   -2.9182   -1.7674   -3.4486 H   0  0  0  0  0  0  0  0  0  0  0  0
   -2.2017   -3.2749   -2.8542 H   0  0  0  0  0  0  0  0  0  0  0  0
  1  2  1  0  0  0  0
  2  3  1  0  0  0  0
  3  4  2  0  0  0  0
  4  5  2  0  0  0  0
  4  6  2  0  0  0  0
  6  7  1  0  0  0  0
  7  8  1  0  0  0  0
  4  9  1  0  0  0  0
  9 10  1  0  0  0  0
 10 11  1  0  0  0  0
 11 12  1  0  0  0  0
 12 13  2  0  0  0  0
 12 14  2  0  0  0  0
 14 15  1  0  0  0  0
 15 16  1  0  0  0  0
 12 17  2  0  0  0  0
 17 18  1  0  0  0  0
 18 19  1  0  0  0  0
  1 20  1  0  0  0  0
  1 21  1  0  0  0  0
  1 22  1  0  0  0  0
  2 23  1  0  0  0  0
  2 24  1  0  0  0  0
  7 25  1  0  0  0  0
  7 26  1  0  0  0  0
  8 27  1  0  0  0  0
  8 28  1  0  0  0  0
  8 29  1  0  0  0  0
 10 30  1  0  0  0  0
 10 31  1  0  0  0  0
 15 32  1  0  0  0  0
 15 33  1  0  0  0  0
 16 34  1  0  0  0  0
 16 35  1  0  0  0  0
 16 36  1  0  0  0  0
 18 37  1  0  0  0  0
 18 38  1  0  0  0  0
 19 39  1  0  0  0  0
 19 40  1  0  0  0  0
 19 41  1  0  0  0  0
M  END
