  23
 
 C         -6.9406655350       -0.0764440640        0.0037033795
 C         -5.5969716966        0.6429491155        0.0069746531
 C         -4.4280619027       -0.3398411707        0.0072908592
 C         -3.0779304620        0.3732917045        0.0016352057
 C         -1.9142120451       -0.6159883031        0.0006721839
 C         -0.5641014579        0.1025618073       -0.0006835307
 C          0.5661598911       -0.9040824525       -0.0003385015
 I          2.5227480021        0.0504253129       -0.0008129639
 H         -7.7583504833        0.6399363823       -0.0057092063
 H         -7.0297150867       -0.7119185754       -0.8747115173
 H         -7.0405288732       -0.7006879595        0.8888721708
 H         -5.5301030531        1.2832102417        0.8893920542
 H         -5.5272001404        1.2856519042       -0.8734618011
 H         -4.5004334639       -0.9839903313       -0.8721566805
 H         -4.4960427892       -0.9788192579        0.8908430863
 H         -3.0054794958        1.0168966749        0.8812112344
 H         -3.0106727998        1.0122793042       -0.8816943516
 H         -1.9854617242       -1.2566348315       -0.8811927994
 H         -1.9838108513       -1.2562457073        0.8829669087
 H         -0.4929335846        0.7428710421        0.8811711175
 H         -0.4937081890        0.7415990228       -0.8835214003
 H          0.5450804715       -1.5301073242       -0.8881515826
 H          0.5447559799       -1.5296276929        0.8877970181
          23
        -26.46567637
 C         -6.0870708362       -1.0814886417        0.1908624428
 C         -5.0924544292       -0.0740335647       -0.3736594054
 C         -3.7116984801       -0.2223725273        0.2613506048
 C         -2.7091937544        0.7817692656       -0.3023728623
 C         -1.3292385237        0.6248651631        0.3313595658
 C         -0.3231640185        1.6181126376       -0.2430835501
 C          1.0433942304        1.5256254907        0.4004650725
 I          2.0644726787       -0.3495225675       -0.0326926596
 H         -6.2000429953       -0.9450261703        1.2640140483
 H         -7.0613240482       -0.9598948727       -0.2758453052
 H         -5.7433047288       -2.0974113082        0.0099563910
 H         -5.4628856043        0.9386170038       -0.1989492874
 H         -5.0084819072       -0.2136829576       -1.4536960945
 H         -3.3433037558       -1.2362374228        0.0877856937
 H         -3.7955516077       -0.0825451530        1.3417824338
 H         -3.0766583586        1.7956734488       -0.1271650422
 H         -2.6284848209        0.6410972205       -1.3827382123
 H         -0.9734421382       -0.3938915001        0.1598036287
 H         -1.4080954277        0.7710073842        1.4114410850
 H         -0.6870024456        2.6356965220       -0.0727762559
 H         -0.2404268946        1.4733253150       -1.3225579646
 H          0.9798412868        1.5751161795        1.4842420841
 H          1.7109159745        2.3005132174        0.0339934700
