 xtb: 6.7.1 (edcfbbe)
          04092505213D

 41 40  0     0  0            999 V2000
    2.9611   -2.7709    1.1400 C   0  0  0  0  0  0  0  0  0  0  0  0
    1.6997   -2.2815    0.4585 C   0  0  0  0  0  0  0  0  0  0  0  0
    1.5218   -0.8688    0.6610 O   0  0  0  0  0  0  0  0  0  0  0  0
    2.3202    0.2334   -0.1834 P   0  0  0  0  0  0  0  0  0  0  0  0
    3.2151   -0.3849   -1.8040 S   0  0  0  0  0  0  0  0  0  0  0  0
    3.3460    0.8838    0.8300 O   0  0  0  0  0  0  0  0  0  0  0  0
    3.0561    1.2158    2.2111 C   0  0  0  0  0  0  0  0  0  0  0  0
    2.5560    2.6397    2.3459 C   0  0  0  0  0  0  0  0  0  0  0  0
    0.8012    1.6938   -0.4450 S   0  0  0  0  0  0  0  0  0  0  0  0
    0.1240    1.0179   -1.9810 C   0  0  0  0  0  0  0  0  0  0  0  0
   -0.5154   -0.6698   -1.7994 S   0  0  0  0  0  0  0  0  0  0  0  0
   -2.1031   -0.2094   -0.4698 P   0  0  0  0  0  0  0  0  0  0  0  0
   -2.9780    1.5311   -0.6944 S   0  0  0  0  0  0  0  0  0  0  0  0
   -1.5726   -0.5139    0.9984 O   0  0  0  0  0  0  0  0  0  0  0  0
   -1.2677    0.4739    1.9985 C   0  0  0  0  0  0  0  0  0  0  0  0
   -1.9237    0.0755    3.3058 C   0  0  0  0  0  0  0  0  0  0  0  0
   -2.9533   -1.5016   -0.7998 O   0  0  0  0  0  0  0  0  0  0  0  0
   -4.3802   -1.5617   -0.5903 C   0  0  0  0  0  0  0  0  0  0  0  0
   -4.7467   -1.4650    0.8759 C   0  0  0  0  0  0  0  0  0  0  0  0
    3.0578   -3.8416    0.9912 H   0  0  0  0  0  0  0  0  0  0  0  0
    3.8271   -2.2735    0.7039 H   0  0  0  0  0  0  0  0  0  0  0  0
    2.9278   -2.5564    2.2049 H   0  0  0  0  0  0  0  0  0  0  0  0
    0.7999   -2.7300    0.8830 H   0  0  0  0  0  0  0  0  0  0  0  0
    1.7355   -2.4814   -0.6171 H   0  0  0  0  0  0  0  0  0  0  0  0
    2.3315    0.4984    2.6029 H   0  0  0  0  0  0  0  0  0  0  0  0
    4.0150    1.0855    2.7157 H   0  0  0  0  0  0  0  0  0  0  0  0
    3.2718    3.3283    1.9056 H   0  0  0  0  0  0  0  0  0  0  0  0
    1.6003    2.7643    1.8402 H   0  0  0  0  0  0  0  0  0  0  0  0
    2.4348    2.8739    3.3989 H   0  0  0  0  0  0  0  0  0  0  0  0
    0.9093    0.9706   -2.7346 H   0  0  0  0  0  0  0  0  0  0  0  0
   -0.6802    1.6881   -2.2836 H   0  0  0  0  0  0  0  0  0  0  0  0
   -0.1800    0.5027    2.0971 H   0  0  0  0  0  0  0  0  0  0  0  0
   -1.6226    1.4513    1.6541 H   0  0  0  0  0  0  0  0  0  0  0  0
   -1.6133   -0.9262    3.5885 H   0  0  0  0  0  0  0  0  0  0  0  0
   -1.6229    0.7768    4.0773 H   0  0  0  0  0  0  0  0  0  0  0  0
   -3.0058    0.0954    3.2107 H   0  0  0  0  0  0  0  0  0  0  0  0
   -4.8466   -0.7508   -1.1583 H   0  0  0  0  0  0  0  0  0  0  0  0
   -4.6635   -2.5244   -1.0179 H   0  0  0  0  0  0  0  0  0  0  0  0
   -4.5006   -0.4718    1.2495 H   0  0  0  0  0  0  0  0  0  0  0  0
   -5.8134   -1.6299    0.9918 H   0  0  0  0  0  0  0  0  0  0  0  0
   -4.1999   -2.2082    1.4503 H   0  0  0  0  0  0  0  0  0  0  0  0
  1  2  1  0  0  0  0
  2  3  1  0  0  0  0
  3  4  1  0  0  0  0
  4  5  2  0  0  0  0
  4  6  2  0  0  0  0
  6  7  1  0  0  0  0
  7  8  1  0  0  0  0
  4  9  1  0  0  0  0
  9 10  1  0  0  0  0
 10 11  1  0  0  0  0
 11 12  1  0  0  0  0
 12 13  2  0  0  0  0
 12 14  2  0  0  0  0
 14 15  1  0  0  0  0
 15 16  1  0  0  0  0
 12 17  2  0  0  0  0
 17 18  1  0  0  0  0
 18 19  1  0  0  0  0
  1 20  1  0  0  0  0
  1 21  1  0  0  0  0
  1 22  1  0  0  0  0
  2 23  1  0  0  0  0
  2 24  1  0  0  0  0
  7 25  1  0  0  0  0
  7 26  1  0  0  0  0
  8 27  1  0  0  0  0
  8 28  1  0  0  0  0
  8 29  1  0  0  0  0
 10 30  1  0  0  0  0
 10 31  1  0  0  0  0
 15 32  1  0  0  0  0
 15 33  1  0  0  0  0
 16 34  1  0  0  0  0
 16 35  1  0  0  0  0
 16 36  1  0  0  0  0
 18 37  1  0  0  0  0
 18 38  1  0  0  0  0
 19 39  1  0  0  0  0
 19 40  1  0  0  0  0
 19 41  1  0  0  0  0
M  END
