41
 xtb: 6.7.1 (edcfbbe)
C            5.81298253846908       -0.08453737620217       -0.39820942775350
C            4.68548993040214       -1.06740253676010       -0.21173043285413
O            3.54683704859060       -0.38201832484294        0.42320728494387
P            2.18840020422616       -0.08781031710976       -0.38972675906974
S            2.35582777345552        0.53423920997868       -2.22714024305585
O            1.42019125987714        0.87648634594308        0.63563714966257
C            1.48939543084003        2.34274952384257        0.52585415547064
C            2.81924265740484        2.87140241345813        1.00334467207863
S            1.20331787532873       -1.94002037514351       -0.10730209037218
C           -0.26448926303066       -1.77128377662683       -1.21415857754101
S           -1.88469839782489       -1.80339045187067       -0.35462058382901
P           -2.31386912901952        0.26379578796399       -0.07542968059168
S           -1.91974761821709        1.42863270084848       -1.58150622470545
O           -1.57321444795910        0.76627540341540        1.25320242201997
C           -1.26459915452347       -0.05498363301343        2.43461729480027
C           -2.49416145548751       -0.42952999110320        3.22380201037675
O           -3.84670756873306        0.15459058026698        0.40480193061506
C           -4.98940999811139        0.35054737766010       -0.50075486768226
C           -5.25642381138974       -0.86158627838575       -1.35705962014501
H            6.09642421808711        0.36729366393402        0.55676182739012
H            6.68307021518806       -0.61280573785763       -0.80172735727451
H            5.53116777107314        0.70577685326930       -1.09948223758287
H            4.95205024104393       -1.87326299467417        0.47618417903466
H            4.36573427727312       -1.50417338699136       -1.16274916034556
H            1.28291961589656        2.61929979435969       -0.51222748215075
H            0.66583049059008        2.68365471047105        1.15674564154380
H            3.02824688731262        2.54010486519013        2.02451474600406
H            3.63751508310643        2.55232809126027        0.35029691371374
H            2.78429694854628        3.96578293621300        0.99475061859581
H           -0.26866384927795       -2.64038829655111       -1.87603050343693
H           -0.17531316481573       -0.86418421934532       -1.82317332099069
H           -0.70557361123442       -0.93442200307916        2.10189610882001
H           -0.59796101601883        0.58791863388549        3.01299526201407
H           -3.12898341129746       -1.13658685185587        2.68298134200569
H           -2.16962921878838       -0.90888279958046        4.15332838788181
H           -3.08257801488388        0.45585257559674        3.48067219461321
H           -5.81831549976984        0.55041647870298        0.18121294520090
H           -4.79775287118022        1.24399893993875       -1.10211727530197
H           -6.18288433662822       -0.69160374570796       -1.91525935510239
H           -4.45255339803076       -1.03415914364447       -2.07775539670719
H           -5.38487336916048       -1.75702749369840       -0.74234572671505
