41
 xtb: 6.7.1 (edcfbbe)
C            0.02186672074621        2.69748392576285        2.31919822360600
C            0.63452794361492        1.33188525414499        2.49284951676268
O            0.92614006783391        0.81787428974081        1.14480137504904
P            1.73838277639985       -0.55217765603567        0.94994956091930
S            1.27857017884302       -2.01199710770010        2.15683823984876
O            3.25943052346614       -0.02701205405405        0.98125033455140
C            4.39684788278188       -0.88447994582485        1.34840596361606
C            4.81299671571629       -1.78823240913688        0.21544545804771
S            1.47146669993818       -0.90700795241121       -1.11985105415417
C           -0.16861105339100       -1.76166527018318       -1.10566874334768
S           -1.43871354128295       -1.04849527745864       -2.22896068671996
P           -2.19670549807260        0.60638632079162       -1.15138578506562
S           -3.85346312085256        1.16804844682548       -2.00307364664167
O           -1.04040425952579        1.70518308170565       -0.99798490251262
C           -0.52239400956215        2.42411347911743       -2.16441688629152
C            0.59364505062357        3.30805684241395       -1.67023885165314
O           -2.21365960164847        0.19064320945927        0.39960274952997
C           -3.19900162661849       -0.77658976108748        0.90202075668890
C           -2.91812448341107       -0.96032141709690        2.37039790291600
H           -0.19750929296141        3.11216852507500        3.30804584897594
H            0.71141936261885        3.37376679825662        1.80591717722848
H           -0.91267687938512        2.64049927154569        1.75400207066639
H           -0.05363090839627        0.63296069002576        2.97801949383164
H            1.56937036058175        1.37596563915762        3.06111470990684
H            5.18146339492667       -0.16884135274791        1.60171105463138
H            4.12430984557930       -1.44911761530527        2.24479086720409
H            5.02854309466532       -1.21162587768699       -0.68873370338378
H            5.72397871977304       -2.31882767435289        0.51148721474948
H            4.04412870121494       -2.53302074489878       -0.00927041444859
H           -0.54815263999094       -1.81333059717072       -0.08169574699151
H           -0.01841524068749       -2.78000059719344       -1.47415231319182
H           -0.16537775538844        1.69087165494032       -2.89556044203749
H           -1.34042056029395        3.00489889666957       -2.60221645589112
H            0.22525714529120        4.02129007275799       -0.92734877353920
H            1.39781568443517        2.71302425369382       -1.22766163327105
H            1.00150727554486        3.86917592421762       -2.51644627457886
H           -4.19917040531412       -0.37084230300352        0.72289042740355
H           -3.08349953036616       -1.71338995716285        0.34604096443834
H           -3.02239539869575       -0.01386265080427        2.90856058336505
H           -3.63857086424551       -1.67382949789072        2.78162179382810
H           -1.91008005420297       -1.35534258806693        2.52836233877236
