 xtb: 6.7.1 (edcfbbe)
          04092505203D

 41 40  0     0  0            999 V2000
    2.7095    0.9561   -2.6239 C   0  0  0  0  0  0  0  0  0  0  0  0
    3.4220   -0.2620   -2.0734 C   0  0  0  0  0  0  0  0  0  0  0  0
    3.3941   -0.3269   -0.6376 O   0  0  0  0  0  0  0  0  0  0  0  0
    2.0924   -0.2313    0.2703 P   0  0  0  0  0  0  0  0  0  0  0  0
    1.4985    1.6002    0.6676 S   0  0  0  0  0  0  0  0  0  0  0  0
    2.5209   -1.0459    1.5597 O   0  0  0  0  0  0  0  0  0  0  0  0
    3.0390   -0.3996    2.7389 C   0  0  0  0  0  0  0  0  0  0  0  0
    4.4563    0.0827    2.5149 C   0  0  0  0  0  0  0  0  0  0  0  0
    0.8243   -1.6811   -0.6251 S   0  0  0  0  0  0  0  0  0  0  0  0
   -0.2475   -2.0525    0.7911 C   0  0  0  0  0  0  0  0  0  0  0  0
   -1.0945   -0.6073    1.4933 S   0  0  0  0  0  0  0  0  0  0  0  0
   -2.0979    0.0957   -0.2340 P   0  0  0  0  0  0  0  0  0  0  0  0
   -1.1750    0.9793   -1.7276 S   0  0  0  0  0  0  0  0  0  0  0  0
   -3.2621    0.9775    0.3943 O   0  0  0  0  0  0  0  0  0  0  0  0
   -3.1291    2.3896    0.6187 C   0  0  0  0  0  0  0  0  0  0  0  0
   -2.1658    2.6911    1.7487 C   0  0  0  0  0  0  0  0  0  0  0  0
   -2.8366   -1.2536   -0.6086 O   0  0  0  0  0  0  0  0  0  0  0  0
   -3.3902   -1.4854   -1.9208 C   0  0  0  0  0  0  0  0  0  0  0  0
   -4.6182   -0.6348   -2.1668 C   0  0  0  0  0  0  0  0  0  0  0  0
    3.1114    1.8650   -2.1818 H   0  0  0  0  0  0  0  0  0  0  0  0
    2.8354    0.9940   -3.7011 H   0  0  0  0  0  0  0  0  0  0  0  0
    1.6431    0.9088   -2.3999 H   0  0  0  0  0  0  0  0  0  0  0  0
    4.4879   -0.2396   -2.3081 H   0  0  0  0  0  0  0  0  0  0  0  0
    2.9741   -1.1803   -2.4650 H   0  0  0  0  0  0  0  0  0  0  0  0
    2.3806    0.4362    2.9976 H   0  0  0  0  0  0  0  0  0  0  0  0
    2.9860   -1.1692    3.5098 H   0  0  0  0  0  0  0  0  0  0  0  0
    4.8429    0.5135    3.4329 H   0  0  0  0  0  0  0  0  0  0  0  0
    5.0901   -0.7431    2.2033 H   0  0  0  0  0  0  0  0  0  0  0  0
    4.4617    0.8422    1.7335 H   0  0  0  0  0  0  0  0  0  0  0  0
    0.3496   -2.4726    1.5974 H   0  0  0  0  0  0  0  0  0  0  0  0
   -0.9832   -2.7678    0.4301 H   0  0  0  0  0  0  0  0  0  0  0  0
   -2.7904    2.8609   -0.3103 H   0  0  0  0  0  0  0  0  0  0  0  0
   -4.1431    2.7155    0.8545 H   0  0  0  0  0  0  0  0  0  0  0  0
   -2.1778    3.7551    1.9619 H   0  0  0  0  0  0  0  0  0  0  0  0
   -2.4460    2.1385    2.6420 H   0  0  0  0  0  0  0  0  0  0  0  0
   -1.1516    2.4066    1.4647 H   0  0  0  0  0  0  0  0  0  0  0  0
   -2.6163   -1.2731   -2.6656 H   0  0  0  0  0  0  0  0  0  0  0  0
   -3.6272   -2.5500   -1.9210 H   0  0  0  0  0  0  0  0  0  0  0  0
   -5.0602   -0.9070   -3.1200 H   0  0  0  0  0  0  0  0  0  0  0  0
   -5.3445   -0.7842   -1.3723 H   0  0  0  0  0  0  0  0  0  0  0  0
   -4.3382    0.4175   -2.1938 H   0  0  0  0  0  0  0  0  0  0  0  0
  1  2  1  0  0  0  0
  2  3  1  0  0  0  0
  3  4  2  0  0  0  0
  4  5  2  0  0  0  0
  4  6  2  0  0  0  0
  6  7  1  0  0  0  0
  7  8  1  0  0  0  0
  4  9  1  0  0  0  0
  9 10  1  0  0  0  0
 10 11  1  0  0  0  0
 11 12  1  0  0  0  0
 12 13  2  0  0  0  0
 12 14  2  0  0  0  0
 14 15  1  0  0  0  0
 15 16  1  0  0  0  0
 12 17  2  0  0  0  0
 17 18  1  0  0  0  0
 18 19  1  0  0  0  0
  1 20  1  0  0  0  0
  1 21  1  0  0  0  0
  1 22  1  0  0  0  0
  2 23  1  0  0  0  0
  2 24  1  0  0  0  0
  7 25  1  0  0  0  0
  7 26  1  0  0  0  0
  8 27  1  0  0  0  0
  8 28  1  0  0  0  0
  8 29  1  0  0  0  0
 10 30  1  0  0  0  0
 10 31  1  0  0  0  0
 15 32  1  0  0  0  0
 15 33  1  0  0  0  0
 16 34  1  0  0  0  0
 16 35  1  0  0  0  0
 16 36  1  0  0  0  0
 18 37  1  0  0  0  0
 18 38  1  0  0  0  0
 19 39  1  0  0  0  0
 19 40  1  0  0  0  0
 19 41  1  0  0  0  0
M  END
