41
 xtb: 6.7.1 (edcfbbe)
C            1.43931911834440       -0.91530879632195       -3.21047636866777
C            2.38120037018476       -0.57206064004366       -2.08552648479492
O            1.90653296151246       -1.27588428921211       -0.88718241959072
P            2.27620965239367       -0.83002954459071        0.61204819634661
S            3.41940413581325        0.73979009653376        0.77380035412473
O            2.80051458038004       -2.25507077138639        1.13710878505359
C            2.95640373673695       -2.63703503414603        2.55023567117026
C            4.06164861572364       -1.88958974516523        3.25264918844610
S            0.40423926757141       -0.68813772745207        1.61397644135451
C            0.04472269067828        1.09253804551186        1.37060106895005
S           -0.15126235852989        1.65606362631321       -0.37650706484027
P           -2.17657528117668        1.22943131496739       -0.76197589451545
S           -2.60168529191836        1.67298625870937       -2.60942860521323
O           -2.93864860655955        2.02236586459492        0.40536604229045
C           -4.37370704596256        2.34801392476895        0.31813516741853
C           -5.24644536257470        1.13813015014238        0.54002685110325
O           -2.44360342487809       -0.29067641453064       -0.29622748549343
C           -1.94298094223010       -1.41168532993502       -1.10210752223760
C           -2.41649866268787       -2.68128569018781       -0.44436982963546
H            0.43194701368231       -0.54026292628506       -3.00623229250358
H            1.80399712101021       -0.44349589098214       -4.12835307722633
H            1.39315305047605       -1.99589246015147       -3.37329401064472
H            2.39674359670991        0.50225322216067       -1.88608910051345
H            3.40119544669869       -0.91377417501262       -2.28472177821986
H            1.99368534798718       -2.50701453417916        3.05351406026118
H            3.17526440085429       -3.70478346686924        2.48914218098347
H            5.00140847432028       -1.96323523691882        2.69800455599432
H            3.81354237628489       -0.83579993755099        3.39753394214507
H            4.20552171134375       -2.34719794337986        4.23705956760123
H            0.86613278258350        1.68608394171723        1.78066574370218
H           -0.86563686524371        1.29918856860851        1.93941426277628
H           -4.50851518071209        3.09233005719062        1.10493389570800
H           -4.55790251572716        2.81750462019242       -0.65312266082779
H           -5.16453668047108        0.42035339371325       -0.28111642271636
H           -4.99252207742586        0.63863956494191        1.47937786317806
H           -6.28808277072478        1.47115316163108        0.59765173375372
H           -2.33845738194012       -1.30831575926926       -2.11756288988005
H           -0.85009976863202       -1.35427510629080       -1.12883065024288
H           -2.06301755011346       -3.53543804716427       -1.03014758525420
H           -2.01872174464609       -2.77016757720626        0.57053286833550
H           -3.50900286481275       -2.71738386434853       -0.40542367302142
