 xtb: 6.7.1 (edcfbbe)
          04092505203D

 41 40  0     0  0            999 V2000
    3.5693   -2.0492   -2.1024 C   0  0  0  0  0  0  0  0  0  0  0  0
    3.9798   -0.5908   -2.0669 C   0  0  0  0  0  0  0  0  0  0  0  0
    3.5424    0.0780   -0.8732 O   0  0  0  0  0  0  0  0  0  0  0  0
    2.0066    0.3396   -0.5126 P   0  0  0  0  0  0  0  0  0  0  0  0
    0.9067    0.8508   -2.0428 S   0  0  0  0  0  0  0  0  0  0  0  0
    2.1620    1.4737    0.5621 O   0  0  0  0  0  0  0  0  0  0  0  0
    2.9178    1.3066    1.7895 C   0  0  0  0  0  0  0  0  0  0  0  0
    2.4495    2.3663    2.7635 C   0  0  0  0  0  0  0  0  0  0  0  0
    1.4223   -1.4147    0.5575 S   0  0  0  0  0  0  0  0  0  0  0  0
    0.0605   -2.0035   -0.4967 C   0  0  0  0  0  0  0  0  0  0  0  0
   -1.5389   -2.0988    0.3556 S   0  0  0  0  0  0  0  0  0  0  0  0
   -2.0726   -0.0701    0.3879 P   0  0  0  0  0  0  0  0  0  0  0  0
   -0.9093    1.2518    1.2654 S   0  0  0  0  0  0  0  0  0  0  0  0
   -3.5506   -0.0743    0.9760 O   0  0  0  0  0  0  0  0  0  0  0  0
   -3.8184    0.0634    2.3824 C   0  0  0  0  0  0  0  0  0  0  0  0
   -3.3312   -1.1366    3.1678 C   0  0  0  0  0  0  0  0  0  0  0  0
   -2.3384    0.1420   -1.1576 O   0  0  0  0  0  0  0  0  0  0  0  0
   -2.6586    1.4403   -1.7025 C   0  0  0  0  0  0  0  0  0  0  0  0
   -2.5893    1.3364   -3.2109 C   0  0  0  0  0  0  0  0  0  0  0  0
    2.4905   -2.1293   -2.2260 H   0  0  0  0  0  0  0  0  0  0  0  0
    4.0544   -2.5346   -2.9432 H   0  0  0  0  0  0  0  0  0  0  0  0
    3.8601   -2.5469   -1.1808 H   0  0  0  0  0  0  0  0  0  0  0  0
    3.5730   -0.0549   -2.9303 H   0  0  0  0  0  0  0  0  0  0  0  0
    5.0648   -0.4795   -2.0403 H   0  0  0  0  0  0  0  0  0  0  0  0
    2.7332    0.3004    2.1776 H   0  0  0  0  0  0  0  0  0  0  0  0
    3.9763    1.4140    1.5438 H   0  0  0  0  0  0  0  0  0  0  0  0
    2.9790    2.2486    3.7031 H   0  0  0  0  0  0  0  0  0  0  0  0
    2.6392    3.3561    2.3588 H   0  0  0  0  0  0  0  0  0  0  0  0
    1.3802    2.2611    2.9324 H   0  0  0  0  0  0  0  0  0  0  0  0
    0.2878   -3.0251   -0.7899 H   0  0  0  0  0  0  0  0  0  0  0  0
   -0.0284   -1.3425   -1.3633 H   0  0  0  0  0  0  0  0  0  0  0  0
   -3.3342    0.9791    2.7372 H   0  0  0  0  0  0  0  0  0  0  0  0
   -4.9026    0.1704    2.4334 H   0  0  0  0  0  0  0  0  0  0  0  0
   -3.7370   -2.0534    2.7477 H   0  0  0  0  0  0  0  0  0  0  0  0
   -2.2432   -1.1857    3.1294 H   0  0  0  0  0  0  0  0  0  0  0  0
   -3.6435   -1.0417    4.2028 H   0  0  0  0  0  0  0  0  0  0  0  0
   -3.6593    1.7146   -1.3594 H   0  0  0  0  0  0  0  0  0  0  0  0
   -1.9341    2.1671   -1.3187 H   0  0  0  0  0  0  0  0  0  0  0  0
   -2.8778    2.2873   -3.6464 H   0  0  0  0  0  0  0  0  0  0  0  0
   -1.5735    1.0962   -3.5161 H   0  0  0  0  0  0  0  0  0  0  0  0
   -3.2601    0.5566   -3.5588 H   0  0  0  0  0  0  0  0  0  0  0  0
  1  2  1  0  0  0  0
  2  3  1  0  0  0  0
  3  4  2  0  0  0  0
  4  5  2  0  0  0  0
  4  6  2  0  0  0  0
  6  7  1  0  0  0  0
  7  8  1  0  0  0  0
  4  9  1  0  0  0  0
  9 10  1  0  0  0  0
 10 11  1  0  0  0  0
 11 12  1  0  0  0  0
 12 13  2  0  0  0  0
 12 14  2  0  0  0  0
 14 15  1  0  0  0  0
 15 16  1  0  0  0  0
 12 17  2  0  0  0  0
 17 18  1  0  0  0  0
 18 19  1  0  0  0  0
  1 20  1  0  0  0  0
  1 21  1  0  0  0  0
  1 22  1  0  0  0  0
  2 23  1  0  0  0  0
  2 24  1  0  0  0  0
  7 25  1  0  0  0  0
  7 26  1  0  0  0  0
  8 27  1  0  0  0  0
  8 28  1  0  0  0  0
  8 29  1  0  0  0  0
 10 30  1  0  0  0  0
 10 31  1  0  0  0  0
 15 32  1  0  0  0  0
 15 33  1  0  0  0  0
 16 34  1  0  0  0  0
 16 35  1  0  0  0  0
 16 36  1  0  0  0  0
 18 37  1  0  0  0  0
 18 38  1  0  0  0  0
 19 39  1  0  0  0  0
 19 40  1  0  0  0  0
 19 41  1  0  0  0  0
M  END
