 xtb: 6.7.1 (edcfbbe)
          04092505213D

 41 40  0     0  0            999 V2000
    4.4450   -1.8392    0.8966 C   0  0  0  0  0  0  0  0  0  0  0  0
    4.4884   -0.3364    0.7084 C   0  0  0  0  0  0  0  0  0  0  0  0
    3.1880    0.2646    0.8449 O   0  0  0  0  0  0  0  0  0  0  0  0
    2.0288    0.0443   -0.2196 P   0  0  0  0  0  0  0  0  0  0  0  0
    2.6314   -0.0192   -2.0886 S   0  0  0  0  0  0  0  0  0  0  0  0
    1.0237    1.2164    0.1655 O   0  0  0  0  0  0  0  0  0  0  0  0
    1.0927    2.5084   -0.4651 C   0  0  0  0  0  0  0  0  0  0  0  0
    2.3549    3.2544   -0.0910 C   0  0  0  0  0  0  0  0  0  0  0  0
    1.0010   -1.6049    0.5707 S   0  0  0  0  0  0  0  0  0  0  0  0
   -0.1466   -1.9489   -0.8030 C   0  0  0  0  0  0  0  0  0  0  0  0
   -0.8720   -0.4652   -1.5617 S   0  0  0  0  0  0  0  0  0  0  0  0
   -2.0672    0.3342    0.0151 P   0  0  0  0  0  0  0  0  0  0  0  0
   -2.6179    2.1607   -0.4159 S   0  0  0  0  0  0  0  0  0  0  0  0
   -1.3126    0.1779    1.3839 O   0  0  0  0  0  0  0  0  0  0  0  0
   -1.6283   -0.7511    2.4591 C   0  0  0  0  0  0  0  0  0  0  0  0
   -0.7786   -0.3464    3.6445 C   0  0  0  0  0  0  0  0  0  0  0  0
   -3.2523   -0.7205    0.1770 O   0  0  0  0  0  0  0  0  0  0  0  0
   -4.2933   -0.8011   -0.8157 C   0  0  0  0  0  0  0  0  0  0  0  0
   -5.3990   -1.6738   -0.2577 C   0  0  0  0  0  0  0  0  0  0  0  0
    5.4583   -2.2274    0.9096 H   0  0  0  0  0  0  0  0  0  0  0  0
    3.9492   -2.0897    1.8310 H   0  0  0  0  0  0  0  0  0  0  0  0
    3.9007   -2.3015    0.0743 H   0  0  0  0  0  0  0  0  0  0  0  0
    4.8827   -0.0847   -0.2814 H   0  0  0  0  0  0  0  0  0  0  0  0
    5.0837    0.1513    1.4814 H   0  0  0  0  0  0  0  0  0  0  0  0
    1.0274    2.3677   -1.5502 H   0  0  0  0  0  0  0  0  0  0  0  0
    0.1942    3.0220   -0.1164 H   0  0  0  0  0  0  0  0  0  0  0  0
    2.4533    3.3032    0.9903 H   0  0  0  0  0  0  0  0  0  0  0  0
    3.2237    2.7434   -0.5050 H   0  0  0  0  0  0  0  0  0  0  0  0
    2.3084    4.2597   -0.4979 H   0  0  0  0  0  0  0  0  0  0  0  0
   -0.9254   -2.5974   -0.4089 H   0  0  0  0  0  0  0  0  0  0  0  0
    0.3959   -2.4369   -1.6110 H   0  0  0  0  0  0  0  0  0  0  0  0
   -2.6942   -0.6770    2.6777 H   0  0  0  0  0  0  0  0  0  0  0  0
   -1.3854   -1.7629    2.1303 H   0  0  0  0  0  0  0  0  0  0  0  0
   -0.9828   -1.0172    4.4726 H   0  0  0  0  0  0  0  0  0  0  0  0
    0.2742   -0.4083    3.3815 H   0  0  0  0  0  0  0  0  0  0  0  0
   -1.0063    0.6740    3.9395 H   0  0  0  0  0  0  0  0  0  0  0  0
   -4.6463    0.2128   -1.0308 H   0  0  0  0  0  0  0  0  0  0  0  0
   -3.8671   -1.2253   -1.7296 H   0  0  0  0  0  0  0  0  0  0  0  0
   -5.8069   -1.2286    0.6451 H   0  0  0  0  0  0  0  0  0  0  0  0
   -6.1866   -1.7631   -0.9985 H   0  0  0  0  0  0  0  0  0  0  0  0
   -5.0132   -2.6613   -0.0224 H   0  0  0  0  0  0  0  0  0  0  0  0
  1  2  1  0  0  0  0
  2  3  1  0  0  0  0
  3  4  2  0  0  0  0
  4  5  2  0  0  0  0
  4  6  1  0  0  0  0
  6  7  1  0  0  0  0
  7  8  1  0  0  0  0
  4  9  1  0  0  0  0
  9 10  1  0  0  0  0
 10 11  1  0  0  0  0
 11 12  1  0  0  0  0
 12 13  2  0  0  0  0
 12 14  2  0  0  0  0
 14 15  1  0  0  0  0
 15 16  1  0  0  0  0
 12 17  2  0  0  0  0
 17 18  1  0  0  0  0
 18 19  1  0  0  0  0
  1 20  1  0  0  0  0
  1 21  1  0  0  0  0
  1 22  1  0  0  0  0
  2 23  1  0  0  0  0
  2 24  1  0  0  0  0
  7 25  1  0  0  0  0
  7 26  1  0  0  0  0
  8 27  1  0  0  0  0
  8 28  1  0  0  0  0
  8 29  1  0  0  0  0
 10 30  1  0  0  0  0
 10 31  1  0  0  0  0
 15 32  1  0  0  0  0
 15 33  1  0  0  0  0
 16 34  1  0  0  0  0
 16 35  1  0  0  0  0
 16 36  1  0  0  0  0
 18 37  1  0  0  0  0
 18 38  1  0  0  0  0
 19 39  1  0  0  0  0
 19 40  1  0  0  0  0
 19 41  1  0  0  0  0
M  END
