 xtb: 6.7.1 (edcfbbe)
          04092505213D

 41 40  0     0  0            999 V2000
    5.5498   -0.3630   -0.3951 C   0  0  0  0  0  0  0  0  0  0  0  0
    4.3162   -1.2296   -0.2489 C   0  0  0  0  0  0  0  0  0  0  0  0
    3.2661   -0.7857   -1.1466 O   0  0  0  0  0  0  0  0  0  0  0  0
    2.1070    0.1965   -0.7326 P   0  0  0  0  0  0  0  0  0  0  0  0
    1.0406    0.6850   -2.2963 S   0  0  0  0  0  0  0  0  0  0  0  0
    2.8768    1.3842   -0.0182 O   0  0  0  0  0  0  0  0  0  0  0  0
    2.2387    2.5873    0.4523 C   0  0  0  0  0  0  0  0  0  0  0  0
    1.9654    2.5008    1.9403 C   0  0  0  0  0  0  0  0  0  0  0  0
    1.1629   -0.8204    0.8999 S   0  0  0  0  0  0  0  0  0  0  0  0
    0.4258   -2.1812   -0.0268 C   0  0  0  0  0  0  0  0  0  0  0  0
   -1.0566   -1.7411   -1.0066 S   0  0  0  0  0  0  0  0  0  0  0  0
   -1.9682   -0.3108    0.2599 P   0  0  0  0  0  0  0  0  0  0  0  0
   -1.3009    1.5345    0.3841 S   0  0  0  0  0  0  0  0  0  0  0  0
   -2.0149   -1.1349    1.6045 O   0  0  0  0  0  0  0  0  0  0  0  0
   -2.1601   -0.4960    2.8925 C   0  0  0  0  0  0  0  0  0  0  0  0
   -3.5510    0.0720    3.0741 C   0  0  0  0  0  0  0  0  0  0  0  0
   -3.4716   -0.3789   -0.2514 O   0  0  0  0  0  0  0  0  0  0  0  0
   -3.9561    0.3913   -1.3665 C   0  0  0  0  0  0  0  0  0  0  0  0
   -5.4514    0.5716   -1.1980 C   0  0  0  0  0  0  0  0  0  0  0  0
    6.3401   -0.7629    0.2325 H   0  0  0  0  0  0  0  0  0  0  0  0
    5.8805   -0.3581   -1.4302 H   0  0  0  0  0  0  0  0  0  0  0  0
    5.3321    0.6578   -0.0935 H   0  0  0  0  0  0  0  0  0  0  0  0
    3.9378   -1.2119    0.7766 H   0  0  0  0  0  0  0  0  0  0  0  0
    4.5169   -2.2579   -0.5551 H   0  0  0  0  0  0  0  0  0  0  0  0
    2.9477    3.3849    0.2236 H   0  0  0  0  0  0  0  0  0  0  0  0
    1.3139    2.7513   -0.1095 H   0  0  0  0  0  0  0  0  0  0  0  0
    2.8832    2.2850    2.4794 H   0  0  0  0  0  0  0  0  0  0  0  0
    1.5571    3.4474    2.2788 H   0  0  0  0  0  0  0  0  0  0  0  0
    1.2396    1.7166    2.1443 H   0  0  0  0  0  0  0  0  0  0  0  0
    0.1428   -2.9313    0.7079 H   0  0  0  0  0  0  0  0  0  0  0  0
    1.1454   -2.5770   -0.7420 H   0  0  0  0  0  0  0  0  0  0  0  0
   -1.9464   -1.2941    3.6040 H   0  0  0  0  0  0  0  0  0  0  0  0
   -1.4051    0.2920    2.9751 H   0  0  0  0  0  0  0  0  0  0  0  0
   -3.6523    0.4658    4.0804 H   0  0  0  0  0  0  0  0  0  0  0  0
   -3.7128    0.8782    2.3596 H   0  0  0  0  0  0  0  0  0  0  0  0
   -4.2972   -0.7001    2.9074 H   0  0  0  0  0  0  0  0  0  0  0  0
   -3.4342    1.3550   -1.3836 H   0  0  0  0  0  0  0  0  0  0  0  0
   -3.7190   -0.1541   -2.2844 H   0  0  0  0  0  0  0  0  0  0  0  0
   -5.6620    1.1323   -0.2917 H   0  0  0  0  0  0  0  0  0  0  0  0
   -5.8416    1.1133   -2.0534 H   0  0  0  0  0  0  0  0  0  0  0  0
   -5.9342   -0.3991   -1.1337 H   0  0  0  0  0  0  0  0  0  0  0  0
  1  2  1  0  0  0  0
  2  3  1  0  0  0  0
  3  4  2  0  0  0  0
  4  5  2  0  0  0  0
  4  6  2  0  0  0  0
  6  7  1  0  0  0  0
  7  8  1  0  0  0  0
  4  9  1  0  0  0  0
  9 10  1  0  0  0  0
 10 11  1  0  0  0  0
 11 12  1  0  0  0  0
 12 13  2  0  0  0  0
 12 14  2  0  0  0  0
 14 15  1  0  0  0  0
 15 16  1  0  0  0  0
 12 17  2  0  0  0  0
 17 18  1  0  0  0  0
 18 19  1  0  0  0  0
  1 20  1  0  0  0  0
  1 21  1  0  0  0  0
  1 22  1  0  0  0  0
  2 23  1  0  0  0  0
  2 24  1  0  0  0  0
  7 25  1  0  0  0  0
  7 26  1  0  0  0  0
  8 27  1  0  0  0  0
  8 28  1  0  0  0  0
  8 29  1  0  0  0  0
 10 30  1  0  0  0  0
 10 31  1  0  0  0  0
 15 32  1  0  0  0  0
 15 33  1  0  0  0  0
 16 34  1  0  0  0  0
 16 35  1  0  0  0  0
 16 36  1  0  0  0  0
 18 37  1  0  0  0  0
 18 38  1  0  0  0  0
 19 39  1  0  0  0  0
 19 40  1  0  0  0  0
 19 41  1  0  0  0  0
M  END
