 xtb: 6.7.1 (edcfbbe)
          04092509483D

 38 37  0     0  0            999 V2000
    5.0483   -2.6584   -0.8811 C   0  0  0  0  0  0  0  0  0  0  0  0
    3.6907   -3.1384   -1.3699 C   0  0  0  0  0  0  0  0  0  0  0  0
    2.9073   -2.0392   -1.8760 O   0  0  0  0  0  0  0  0  0  0  0  0
    2.2398   -1.2828   -1.0306 C   0  0  0  0  0  0  0  0  0  0  0  0
    2.1832   -1.4592    0.1691 O   0  0  0  0  0  0  0  0  0  0  0  0
    1.5546   -0.1368   -1.7469 C   0  0  0  0  0  0  0  0  0  0  0  0
    0.4180    0.4281   -0.9072 C   0  0  0  0  0  0  0  0  0  0  0  0
    0.0151    1.3378   -1.3644 H   0  0  0  0  0  0  0  0  0  0  0  0
    0.8590    0.7961    0.5013 C   0  0  0  0  0  0  0  0  0  0  0  0
    0.2290    0.4989    1.4936 O   0  0  0  0  0  0  0  0  0  0  0  0
    1.9447    1.5319    0.4647 O   0  0  0  0  0  0  0  0  0  0  0  0
    2.4828    2.0747    1.6894 C   0  0  0  0  0  0  0  0  0  0  0  0
    1.7517    3.3409    2.1066 C   0  0  0  0  0  0  0  0  0  0  0  0
   -0.9420   -0.7887   -0.8195 S   0  0  0  0  0  0  0  0  0  0  0  0
   -2.3651    0.3341    0.2730 P   0  0  0  0  0  0  0  0  0  0  0  0
   -2.2366    2.2801    0.1607 S   0  0  0  0  0  0  0  0  0  0  0  0
   -3.7387   -0.2633   -0.3134 O   0  0  0  0  0  0  0  0  0  0  0  0
   -4.2401    0.0660   -1.6140 C   0  0  0  0  0  0  0  0  0  0  0  0
   -2.4753   -0.2139    1.7507 O   0  0  0  0  0  0  0  0  0  0  0  0
   -2.3637   -1.6151    2.0576 C   0  0  0  0  0  0  0  0  0  0  0  0
    4.9225   -1.9698   -0.0483 H   0  0  0  0  0  0  0  0  0  0  0  0
    5.6325   -3.5095   -0.5470 H   0  0  0  0  0  0  0  0  0  0  0  0
    5.5785   -2.1526   -1.6833 H   0  0  0  0  0  0  0  0  0  0  0  0
    3.1355   -3.6247   -0.5631 H   0  0  0  0  0  0  0  0  0  0  0  0
    3.7910   -3.8116   -2.2214 H   0  0  0  0  0  0  0  0  0  0  0  0
    1.1864   -0.4840   -2.7113 H   0  0  0  0  0  0  0  0  0  0  0  0
    2.3017    0.6424   -1.9116 H   0  0  0  0  0  0  0  0  0  0  0  0
    2.4213    1.3100    2.4679 H   0  0  0  0  0  0  0  0  0  0  0  0
    3.5245    2.2861    1.4447 H   0  0  0  0  0  0  0  0  0  0  0  0
    2.2162    3.7423    3.0017 H   0  0  0  0  0  0  0  0  0  0  0  0
    1.7985    4.0839    1.3150 H   0  0  0  0  0  0  0  0  0  0  0  0
    0.7067    3.1232    2.3187 H   0  0  0  0  0  0  0  0  0  0  0  0
   -4.2894    1.1494   -1.7320 H   0  0  0  0  0  0  0  0  0  0  0  0
   -5.2377   -0.3655   -1.6582 H   0  0  0  0  0  0  0  0  0  0  0  0
   -3.6023   -0.3656   -2.3849 H   0  0  0  0  0  0  0  0  0  0  0  0
   -1.3253   -1.9258    1.9378 H   0  0  0  0  0  0  0  0  0  0  0  0
   -3.0139   -2.1995    1.4082 H   0  0  0  0  0  0  0  0  0  0  0  0
   -2.6695   -1.7054    3.0964 H   0  0  0  0  0  0  0  0  0  0  0  0
  1  2  1  0  0  0  0
  2  3  1  0  0  0  0
  3  4  1  0  0  0  0
  4  5  2  0  0  0  0
  4  6  1  0  0  0  0
  6  7  1  0  0  0  0
  7  8  1  0  0  0  0
  7  9  1  0  0  0  0
  9 10  2  0  0  0  0
  9 11  4  0  0  0  0
 11 12  1  0  0  0  0
 12 13  1  0  0  0  0
  7 14  1  0  0  0  0
 14 15  1  0  0  0  0
 15 16  2  0  0  0  0
 15 17  1  0  0  0  0
 17 18  1  0  0  0  0
 15 19  2  0  0  0  0
 19 20  1  0  0  0  0
  1 21  1  0  0  0  0
  1 22  1  0  0  0  0
  1 23  1  0  0  0  0
  2 24  1  0  0  0  0
  2 25  1  0  0  0  0
  6 26  1  0  0  0  0
  6 27  1  0  0  0  0
 12 28  1  0  0  0  0
 12 29  1  0  0  0  0
 13 30  1  0  0  0  0
 13 31  1  0  0  0  0
 13 32  1  0  0  0  0
 18 33  1  0  0  0  0
 18 34  1  0  0  0  0
 18 35  1  0  0  0  0
 20 36  1  0  0  0  0
 20 37  1  0  0  0  0
 20 38  1  0  0  0  0
M  END
