 xtb: 6.7.1 (edcfbbe)
          04092505203D

 41 40  0     0  0            999 V2000
    4.3925   -1.5972   -0.8307 C   0  0  0  0  0  0  0  0  0  0  0  0
    4.6095   -0.1045   -0.6904 C   0  0  0  0  0  0  0  0  0  0  0  0
    3.5651    0.5384    0.0616 O   0  0  0  0  0  0  0  0  0  0  0  0
    2.0611    0.6236   -0.4568 P   0  0  0  0  0  0  0  0  0  0  0  0
    1.8904    0.8798   -2.3912 S   0  0  0  0  0  0  0  0  0  0  0  0
    1.5105    1.8349    0.3932 O   0  0  0  0  0  0  0  0  0  0  0  0
    1.9768    2.2185    1.7097 C   0  0  0  0  0  0  0  0  0  0  0  0
    1.7834    1.1227    2.7361 C   0  0  0  0  0  0  0  0  0  0  0  0
    1.1716   -1.1513    0.3104 S   0  0  0  0  0  0  0  0  0  0  0  0
    0.0802   -1.6178   -1.0675 C   0  0  0  0  0  0  0  0  0  0  0  0
   -1.6336   -1.8518   -0.5524 S   0  0  0  0  0  0  0  0  0  0  0  0
   -2.0217    0.1130    0.1605 P   0  0  0  0  0  0  0  0  0  0  0  0
   -1.3579    1.5346   -1.0178 S   0  0  0  0  0  0  0  0  0  0  0  0
   -1.4515    0.2471    1.6236 O   0  0  0  0  0  0  0  0  0  0  0  0
   -1.9960   -0.3987    2.8079 C   0  0  0  0  0  0  0  0  0  0  0  0
   -1.5206   -1.8311    2.9441 C   0  0  0  0  0  0  0  0  0  0  0  0
   -3.5877    0.1234    0.4239 O   0  0  0  0  0  0  0  0  0  0  0  0
   -4.5546    0.2227   -0.6393 C   0  0  0  0  0  0  0  0  0  0  0  0
   -5.0596   -1.1460   -1.0520 C   0  0  0  0  0  0  0  0  0  0  0  0
    4.2172   -2.0508    0.1413 H   0  0  0  0  0  0  0  0  0  0  0  0
    3.5330   -1.7865   -1.4720 H   0  0  0  0  0  0  0  0  0  0  0  0
    5.2720   -2.0423   -1.2845 H   0  0  0  0  0  0  0  0  0  0  0  0
    4.6631    0.3680   -1.6760 H   0  0  0  0  0  0  0  0  0  0  0  0
    5.5116    0.1202   -0.1195 H   0  0  0  0  0  0  0  0  0  0  0  0
    3.0280    2.5025    1.6280 H   0  0  0  0  0  0  0  0  0  0  0  0
    1.3694    3.0963    1.9373 H   0  0  0  0  0  0  0  0  0  0  0  0
    2.4102    0.2656    2.4954 H   0  0  0  0  0  0  0  0  0  0  0  0
    2.0574    1.5015    3.7157 H   0  0  0  0  0  0  0  0  0  0  0  0
    0.7438    0.8067    2.7475 H   0  0  0  0  0  0  0  0  0  0  0  0
    0.4051   -2.5780   -1.4604 H   0  0  0  0  0  0  0  0  0  0  0  0
    0.1399   -0.8375   -1.8321 H   0  0  0  0  0  0  0  0  0  0  0  0
   -1.6244    0.2235    3.6242 H   0  0  0  0  0  0  0  0  0  0  0  0
   -3.0839   -0.3395    2.7656 H   0  0  0  0  0  0  0  0  0  0  0  0
   -0.4399   -1.8823    2.8342 H   0  0  0  0  0  0  0  0  0  0  0  0
   -1.7974   -2.1976    3.9277 H   0  0  0  0  0  0  0  0  0  0  0  0
   -1.9784   -2.4644    2.1889 H   0  0  0  0  0  0  0  0  0  0  0  0
   -5.3589    0.8303   -0.2201 H   0  0  0  0  0  0  0  0  0  0  0  0
   -4.1001    0.7561   -1.4806 H   0  0  0  0  0  0  0  0  0  0  0  0
   -5.4649   -1.6682   -0.1901 H   0  0  0  0  0  0  0  0  0  0  0  0
   -5.8402   -1.0230   -1.7960 H   0  0  0  0  0  0  0  0  0  0  0  0
   -4.2546   -1.7413   -1.4761 H   0  0  0  0  0  0  0  0  0  0  0  0
  1  2  1  0  0  0  0
  2  3  1  0  0  0  0
  3  4  2  0  0  0  0
  4  5  2  0  0  0  0
  4  6  2  0  0  0  0
  6  7  1  0  0  0  0
  7  8  1  0  0  0  0
  4  9  1  0  0  0  0
  9 10  1  0  0  0  0
 10 11  1  0  0  0  0
 11 12  1  0  0  0  0
 12 13  2  0  0  0  0
 12 14  2  0  0  0  0
 14 15  1  0  0  0  0
 15 16  1  0  0  0  0
 12 17  2  0  0  0  0
 17 18  1  0  0  0  0
 18 19  1  0  0  0  0
  1 20  1  0  0  0  0
  1 21  1  0  0  0  0
  1 22  1  0  0  0  0
  2 23  1  0  0  0  0
  2 24  1  0  0  0  0
  7 25  1  0  0  0  0
  7 26  1  0  0  0  0
  8 27  1  0  0  0  0
  8 28  1  0  0  0  0
  8 29  1  0  0  0  0
 10 30  1  0  0  0  0
 10 31  1  0  0  0  0
 15 32  1  0  0  0  0
 15 33  1  0  0  0  0
 16 34  1  0  0  0  0
 16 35  1  0  0  0  0
 16 36  1  0  0  0  0
 18 37  1  0  0  0  0
 18 38  1  0  0  0  0
 19 39  1  0  0  0  0
 19 40  1  0  0  0  0
 19 41  1  0  0  0  0
M  END
