38
 xtb: 6.7.1 (edcfbbe)
C            5.32703744436316       -2.71742500059811       -0.77275035165384
C            4.73394254841992       -2.14681319451949       -2.03903546380663
O            3.26976567679454       -2.25408186282101       -2.01814374725493
C            2.60209576481174       -1.30242675446461       -1.35629526502172
O            3.12024631249744       -0.34152139516084       -0.81321853992768
C            1.11793653173464       -1.56936837501718       -1.36832304936423
C            0.38184838448125       -0.48155127537890       -0.59991312119600
H            0.48090716049758        0.48997149137967       -1.09104633334271
C            0.84512546848962       -0.40026763853185        0.84293179059129
O            1.16710365983920       -1.36633555119534        1.51182985400758
O            0.80693560836935        0.85456659912591        1.28842162407985
C            1.10724029403540        1.05669078961237        2.71017383877777
C            0.92019757689118        2.52390494871487        2.99360492552990
S           -1.42203285191856       -0.92787817398182       -0.57277656729155
P           -2.33641633927171        0.94087231958513       -0.11614812978113
S           -1.70917735380259        2.48435627155028       -1.10874312336283
O           -3.87716417949366        0.50068351693527       -0.28441116600245
C           -4.48679736190523        0.44499562921187       -1.60673133253882
O           -2.24602357295180        1.18122155144887        1.46591478660178
C           -2.54044440175634        0.12373075988783        2.42805422869136
H            5.02080884470668       -2.14389242725053        0.10624769640800
H            5.02800877443591       -3.76105025483766       -0.64035995406401
H            6.41858720808644       -2.67939602194255       -0.84448695469227
H            5.02317845214871       -2.72641596038407       -2.91695481400725
H            5.00489837744993       -1.09944521724661       -2.19042628057553
H            0.94441236015059       -2.56077226669124       -0.93587367677901
H            0.77644144397444       -1.60301337956140       -2.40766588380877
H            0.42324955703456        0.43196931407266        3.29212840239303
H            2.13464983516395        0.72619906728380        2.88822961437098
H            1.60173168378573        3.13096404055010        2.39107887440674
H           -0.10911892864947        2.83431768102652        2.79097095467567
H            1.13489357319615        2.71089687542830        4.04975587012643
H           -4.52530882987694        1.44781922501393       -2.03804085363385
H           -5.49430010189707        0.06190354648975       -1.44631258807134
H           -3.92971096810231       -0.23120012337758       -2.26063275960154
H           -3.53805090800553       -0.28593363924776        2.25311601418731
H           -2.49730592715858        0.60484368327960        3.40500345752909
H           -1.78485218574180       -0.66317089007620        2.36119608917368
