 xtb: 6.7.1 (edcfbbe)
          04092509483D

 38 37  0     0  0            999 V2000
    4.9264   -3.4157   -1.7046 C   0  0  0  0  0  0  0  0  0  0  0  0
    3.9356   -2.8585   -0.7001 C   0  0  0  0  0  0  0  0  0  0  0  0
    3.1465   -1.8497   -1.3633 O   0  0  0  0  0  0  0  0  0  0  0  0
    2.3151   -1.1249   -0.6485 C   0  0  0  0  0  0  0  0  0  0  0  0
    2.1460   -1.2488    0.5481 O   0  0  0  0  0  0  0  0  0  0  0  0
    1.6120   -0.0871   -1.4992 C   0  0  0  0  0  0  0  0  0  0  0  0
    0.3798    0.4540   -0.7885 C   0  0  0  0  0  0  0  0  0  0  0  0
   -0.0419    1.3035   -1.3361 H   0  0  0  0  0  0  0  0  0  0  0  0
    0.6888    0.9405    0.6185 C   0  0  0  0  0  0  0  0  0  0  0  0
   -0.0101    0.6930    1.5788 O   0  0  0  0  0  0  0  0  0  0  0  0
    1.7382    1.7255    0.6169 O   0  0  0  0  0  0  0  0  0  0  0  0
    2.1546    2.3556    1.8476 C   0  0  0  0  0  0  0  0  0  0  0  0
    3.2522    3.3485    1.5108 C   0  0  0  0  0  0  0  0  0  0  0  0
   -0.9068   -0.8413   -0.7174 S   0  0  0  0  0  0  0  0  0  0  0  0
   -2.4879    0.2530    0.1661 P   0  0  0  0  0  0  0  0  0  0  0  0
   -2.4782    2.1893   -0.0942 S   0  0  0  0  0  0  0  0  0  0  0  0
   -3.7660   -0.4850   -0.4723 O   0  0  0  0  0  0  0  0  0  0  0  0
   -4.1907   -0.2873   -1.8261 C   0  0  0  0  0  0  0  0  0  0  0  0
   -2.6810   -0.1891    1.6705 O   0  0  0  0  0  0  0  0  0  0  0  0
   -2.5052   -1.5533    2.0929 C   0  0  0  0  0  0  0  0  0  0  0  0
    5.5710   -2.6240   -2.0745 H   0  0  0  0  0  0  0  0  0  0  0  0
    5.5343   -4.1752   -1.2239 H   0  0  0  0  0  0  0  0  0  0  0  0
    4.3985   -3.8586   -2.5435 H   0  0  0  0  0  0  0  0  0  0  0  0
    4.4381   -2.3981    0.1561 H   0  0  0  0  0  0  0  0  0  0  0  0
    3.2591   -3.6332   -0.3270 H   0  0  0  0  0  0  0  0  0  0  0  0
    1.3409   -0.5304   -2.4565 H   0  0  0  0  0  0  0  0  0  0  0  0
    2.3150    0.7297   -1.6745 H   0  0  0  0  0  0  0  0  0  0  0  0
    1.2859    2.8443    2.2998 H   0  0  0  0  0  0  0  0  0  0  0  0
    2.5078    1.5727    2.5254 H   0  0  0  0  0  0  0  0  0  0  0  0
    4.0819    2.8390    1.0301 H   0  0  0  0  0  0  0  0  0  0  0  0
    2.8735    4.1151    0.8412 H   0  0  0  0  0  0  0  0  0  0  0  0
    3.6039    3.8166    2.4244 H   0  0  0  0  0  0  0  0  0  0  0  0
   -4.3012    0.7784   -2.0311 H   0  0  0  0  0  0  0  0  0  0  0  0
   -5.1526   -0.7895   -1.9041 H   0  0  0  0  0  0  0  0  0  0  0  0
   -3.4717   -0.7286   -2.5156 H   0  0  0  0  0  0  0  0  0  0  0  0
   -1.4433   -1.8005    2.0709 H   0  0  0  0  0  0  0  0  0  0  0  0
   -3.0671   -2.2263    1.4469 H   0  0  0  0  0  0  0  0  0  0  0  0
   -2.8816   -1.5879    3.1116 H   0  0  0  0  0  0  0  0  0  0  0  0
  1  2  1  0  0  0  0
  2  3  1  0  0  0  0
  3  4  4  0  0  0  0
  4  5  2  0  0  0  0
  4  6  1  0  0  0  0
  6  7  1  0  0  0  0
  7  8  1  0  0  0  0
  7  9  1  0  0  0  0
  9 10  2  0  0  0  0
  9 11  4  0  0  0  0
 11 12  1  0  0  0  0
 12 13  1  0  0  0  0
  7 14  1  0  0  0  0
 14 15  1  0  0  0  0
 15 16  2  0  0  0  0
 15 17  1  0  0  0  0
 17 18  1  0  0  0  0
 15 19  2  0  0  0  0
 19 20  1  0  0  0  0
  1 21  1  0  0  0  0
  1 22  1  0  0  0  0
  1 23  1  0  0  0  0
  2 24  1  0  0  0  0
  2 25  1  0  0  0  0
  6 26  1  0  0  0  0
  6 27  1  0  0  0  0
 12 28  1  0  0  0  0
 12 29  1  0  0  0  0
 13 30  1  0  0  0  0
 13 31  1  0  0  0  0
 13 32  1  0  0  0  0
 18 33  1  0  0  0  0
 18 34  1  0  0  0  0
 18 35  1  0  0  0  0
 20 36  1  0  0  0  0
 20 37  1  0  0  0  0
 20 38  1  0  0  0  0
M  END
