 xtb: 6.7.1 (edcfbbe)
          04092514013D

 41 40  0     0  0            999 V2000
    3.4700   -0.4407   -2.6545 C   0  0  0  0  0  0  0  0  0  0  0  0
    2.0350   -0.1086   -2.3075 C   0  0  0  0  0  0  0  0  0  0  0  0
    1.5931   -0.7887   -1.1138 O   0  0  0  0  0  0  0  0  0  0  0  0
    2.1255   -0.3950    0.3244 P   0  0  0  0  0  0  0  0  0  0  0  0
    2.6421    1.4785    0.6016 S   0  0  0  0  0  0  0  0  0  0  0  0
    3.2966   -1.4536    0.5148 O   0  0  0  0  0  0  0  0  0  0  0  0
    4.1526   -1.4543    1.6767 C   0  0  0  0  0  0  0  0  0  0  0  0
    5.3794   -2.2879    1.3603 C   0  0  0  0  0  0  0  0  0  0  0  0
    0.6064   -1.1517    1.5819 S   0  0  0  0  0  0  0  0  0  0  0  0
   -0.2425    0.4015    2.0568 C   0  0  0  0  0  0  0  0  0  0  0  0
   -2.0417    0.2975    1.9140 S   0  0  0  0  0  0  0  0  0  0  0  0
   -2.2303    0.4013   -0.1801 P   0  0  0  0  0  0  0  0  0  0  0  0
   -0.9579    1.5561   -1.1372 S   0  0  0  0  0  0  0  0  0  0  0  0
   -3.7697    0.7242   -0.4047 O   0  0  0  0  0  0  0  0  0  0  0  0
   -4.3049    2.0483   -0.5778 C   0  0  0  0  0  0  0  0  0  0  0  0
   -4.2577    2.8740    0.6917 C   0  0  0  0  0  0  0  0  0  0  0  0
   -2.1692   -1.1397   -0.5471 O   0  0  0  0  0  0  0  0  0  0  0  0
   -1.8470   -1.6134   -1.8701 C   0  0  0  0  0  0  0  0  0  0  0  0
   -2.9217   -1.2805   -2.8846 C   0  0  0  0  0  0  0  0  0  0  0  0
    3.7185    0.0166   -3.6075 H   0  0  0  0  0  0  0  0  0  0  0  0
    4.1382   -0.0492   -1.8887 H   0  0  0  0  0  0  0  0  0  0  0  0
    3.6010   -1.5173   -2.7225 H   0  0  0  0  0  0  0  0  0  0  0  0
    1.3441   -0.4542   -3.0782 H   0  0  0  0  0  0  0  0  0  0  0  0
    1.9029    0.9687   -2.1603 H   0  0  0  0  0  0  0  0  0  0  0  0
    4.4218   -0.4193    1.9128 H   0  0  0  0  0  0  0  0  0  0  0  0
    3.5919   -1.8781    2.5144 H   0  0  0  0  0  0  0  0  0  0  0  0
    5.9303   -1.8511    0.5322 H   0  0  0  0  0  0  0  0  0  0  0  0
    6.0202   -2.3213    2.2358 H   0  0  0  0  0  0  0  0  0  0  0  0
    5.0843   -3.2984    1.0933 H   0  0  0  0  0  0  0  0  0  0  0  0
    0.1392    1.2126    1.4314 H   0  0  0  0  0  0  0  0  0  0  0  0
   -0.0398    0.5926    3.1076 H   0  0  0  0  0  0  0  0  0  0  0  0
   -3.7454    2.5439   -1.3774 H   0  0  0  0  0  0  0  0  0  0  0  0
   -5.3330    1.8710   -0.8983 H   0  0  0  0  0  0  0  0  0  0  0  0
   -4.7648    2.3594    1.5035 H   0  0  0  0  0  0  0  0  0  0  0  0
   -3.2245    3.0577    0.9832 H   0  0  0  0  0  0  0  0  0  0  0  0
   -4.7452    3.8271    0.5093 H   0  0  0  0  0  0  0  0  0  0  0  0
   -0.8879   -1.1750   -2.1643 H   0  0  0  0  0  0  0  0  0  0  0  0
   -1.7329   -2.6903   -1.7395 H   0  0  0  0  0  0  0  0  0  0  0  0
   -2.6662   -1.7371   -3.8364 H   0  0  0  0  0  0  0  0  0  0  0  0
   -3.8857   -1.6554   -2.5514 H   0  0  0  0  0  0  0  0  0  0  0  0
   -2.9891   -0.2013   -3.0184 H   0  0  0  0  0  0  0  0  0  0  0  0
  1  2  1  0  0  0  0
  2  3  1  0  0  0  0
  3  4  2  0  0  0  0
  4  5  2  0  0  0  0
  4  6  2  0  0  0  0
  6  7  1  0  0  0  0
  7  8  1  0  0  0  0
  4  9  1  0  0  0  0
  9 10  1  0  0  0  0
 10 11  1  0  0  0  0
 11 12  1  0  0  0  0
 12 13  2  0  0  0  0
 12 14  2  0  0  0  0
 14 15  1  0  0  0  0
 15 16  1  0  0  0  0
 12 17  2  0  0  0  0
 17 18  1  0  0  0  0
 18 19  1  0  0  0  0
  1 20  1  0  0  0  0
  1 21  1  0  0  0  0
  1 22  1  0  0  0  0
  2 23  1  0  0  0  0
  2 24  1  0  0  0  0
  7 25  1  0  0  0  0
  7 26  1  0  0  0  0
  8 27  1  0  0  0  0
  8 28  1  0  0  0  0
  8 29  1  0  0  0  0
 10 30  1  0  0  0  0
 10 31  1  0  0  0  0
 15 32  1  0  0  0  0
 15 33  1  0  0  0  0
 16 34  1  0  0  0  0
 16 35  1  0  0  0  0
 16 36  1  0  0  0  0
 18 37  1  0  0  0  0
 18 38  1  0  0  0  0
 19 39  1  0  0  0  0
 19 40  1  0  0  0  0
 19 41  1  0  0  0  0
M  END
