 xtb: 6.7.1 (edcfbbe)
          04092505213D

 41 40  0     0  0            999 V2000
    0.7049   -0.7328    3.4505 C   0  0  0  0  0  0  0  0  0  0  0  0
    1.6964    0.0014    2.5717 C   0  0  0  0  0  0  0  0  0  0  0  0
    2.1389   -0.9201    1.5414 O   0  0  0  0  0  0  0  0  0  0  0  0
    2.6857   -0.4679    0.1380 P   0  0  0  0  0  0  0  0  0  0  0  0
    3.1949   -2.0528   -0.8899 S   0  0  0  0  0  0  0  0  0  0  0  0
    3.8017    0.5843    0.5489 O   0  0  0  0  0  0  0  0  0  0  0  0
    4.3868    1.5676   -0.3252 C   0  0  0  0  0  0  0  0  0  0  0  0
    4.9773    0.9584   -1.5791 C   0  0  0  0  0  0  0  0  0  0  0  0
    1.1802    0.7597   -0.7637 S   0  0  0  0  0  0  0  0  0  0  0  0
    0.1280   -0.6139   -1.2828 C   0  0  0  0  0  0  0  0  0  0  0  0
   -1.0353   -1.1187   -0.0007 S   0  0  0  0  0  0  0  0  0  0  0  0
   -2.4951    0.3815   -0.4598 P   0  0  0  0  0  0  0  0  0  0  0  0
   -2.8240    0.6641   -2.3683 S   0  0  0  0  0  0  0  0  0  0  0  0
   -1.9797    1.7274    0.1721 O   0  0  0  0  0  0  0  0  0  0  0  0
   -1.7050    1.9144    1.5826 C   0  0  0  0  0  0  0  0  0  0  0  0
   -2.8730    2.5947    2.2665 C   0  0  0  0  0  0  0  0  0  0  0  0
   -3.7075   -0.0057    0.4874 O   0  0  0  0  0  0  0  0  0  0  0  0
   -4.2995   -1.3148    0.5840 C   0  0  0  0  0  0  0  0  0  0  0  0
   -4.7660   -1.8470   -0.7543 C   0  0  0  0  0  0  0  0  0  0  0  0
    1.1838   -1.5919    3.9107 H   0  0  0  0  0  0  0  0  0  0  0  0
    0.3461   -0.0620    4.2243 H   0  0  0  0  0  0  0  0  0  0  0  0
   -0.1325   -1.0872    2.8541 H   0  0  0  0  0  0  0  0  0  0  0  0
    2.5780    0.3169    3.1322 H   0  0  0  0  0  0  0  0  0  0  0  0
    1.2439    0.8734    2.0898 H   0  0  0  0  0  0  0  0  0  0  0  0
    3.6160    2.3011   -0.5777 H   0  0  0  0  0  0  0  0  0  0  0  0
    5.1560    2.0338    0.2929 H   0  0  0  0  0  0  0  0  0  0  0  0
    4.1909    0.5153   -2.1890 H   0  0  0  0  0  0  0  0  0  0  0  0
    5.4782    1.7300   -2.1549 H   0  0  0  0  0  0  0  0  0  0  0  0
    5.6911    0.1791   -1.3226 H   0  0  0  0  0  0  0  0  0  0  0  0
    0.7608   -1.4722   -1.5177 H   0  0  0  0  0  0  0  0  0  0  0  0
   -0.4364   -0.2863   -2.1584 H   0  0  0  0  0  0  0  0  0  0  0  0
   -1.4925    0.9430    2.0369 H   0  0  0  0  0  0  0  0  0  0  0  0
   -0.8119    2.5421    1.6037 H   0  0  0  0  0  0  0  0  0  0  0  0
   -2.6192    2.7790    3.3056 H   0  0  0  0  0  0  0  0  0  0  0  0
   -3.0906    3.5397    1.7766 H   0  0  0  0  0  0  0  0  0  0  0  0
   -3.7571    1.9649    2.2172 H   0  0  0  0  0  0  0  0  0  0  0  0
   -3.5654   -1.9896    1.0330 H   0  0  0  0  0  0  0  0  0  0  0  0
   -5.1373   -1.1683    1.2679 H   0  0  0  0  0  0  0  0  0  0  0  0
   -5.2780   -2.7927   -0.6087 H   0  0  0  0  0  0  0  0  0  0  0  0
   -5.4421   -1.1402   -1.2296 H   0  0  0  0  0  0  0  0  0  0  0  0
   -3.9145   -2.0035   -1.4155 H   0  0  0  0  0  0  0  0  0  0  0  0
  1  2  1  0  0  0  0
  2  3  1  0  0  0  0
  3  4  2  0  0  0  0
  4  5  2  0  0  0  0
  4  6  2  0  0  0  0
  6  7  1  0  0  0  0
  7  8  1  0  0  0  0
  4  9  1  0  0  0  0
  9 10  1  0  0  0  0
 10 11  1  0  0  0  0
 11 12  1  0  0  0  0
 12 13  2  0  0  0  0
 12 14  2  0  0  0  0
 14 15  1  0  0  0  0
 15 16  1  0  0  0  0
 12 17  2  0  0  0  0
 17 18  1  0  0  0  0
 18 19  1  0  0  0  0
  1 20  1  0  0  0  0
  1 21  1  0  0  0  0
  1 22  1  0  0  0  0
  2 23  1  0  0  0  0
  2 24  1  0  0  0  0
  7 25  1  0  0  0  0
  7 26  1  0  0  0  0
  8 27  1  0  0  0  0
  8 28  1  0  0  0  0
  8 29  1  0  0  0  0
 10 30  1  0  0  0  0
 10 31  1  0  0  0  0
 15 32  1  0  0  0  0
 15 33  1  0  0  0  0
 16 34  1  0  0  0  0
 16 35  1  0  0  0  0
 16 36  1  0  0  0  0
 18 37  1  0  0  0  0
 18 38  1  0  0  0  0
 19 39  1  0  0  0  0
 19 40  1  0  0  0  0
 19 41  1  0  0  0  0
M  END
