 xtb: 6.7.1 (edcfbbe)
          04092505213D

 41 40  0     0  0            999 V2000
    4.5068    1.2381   -1.9526 C   0  0  0  0  0  0  0  0  0  0  0  0
    5.0191    0.3518   -0.8346 C   0  0  0  0  0  0  0  0  0  0  0  0
    4.0612   -0.6511   -0.4502 O   0  0  0  0  0  0  0  0  0  0  0  0
    2.7147   -0.2812    0.2871 P   0  0  0  0  0  0  0  0  0  0  0  0
    2.8097    1.1859    1.5899 S   0  0  0  0  0  0  0  0  0  0  0  0
    2.4748   -1.7267    0.8871 O   0  0  0  0  0  0  0  0  0  0  0  0
    1.3772   -2.0508    1.7619 C   0  0  0  0  0  0  0  0  0  0  0  0
    0.3329   -2.8681    1.0254 C   0  0  0  0  0  0  0  0  0  0  0  0
    1.2919   -0.0223   -1.2852 S   0  0  0  0  0  0  0  0  0  0  0  0
    0.3053    1.3015   -0.5311 C   0  0  0  0  0  0  0  0  0  0  0  0
   -0.8184    0.7291    0.7713 S   0  0  0  0  0  0  0  0  0  0  0  0
   -2.4104    0.1186   -0.5206 P   0  0  0  0  0  0  0  0  0  0  0  0
   -1.9829   -1.2287   -1.8717 S   0  0  0  0  0  0  0  0  0  0  0  0
   -2.9135    1.4622   -1.1728 O   0  0  0  0  0  0  0  0  0  0  0  0
   -3.4272    2.5858   -0.4111 C   0  0  0  0  0  0  0  0  0  0  0  0
   -4.9372    2.5240   -0.3125 C   0  0  0  0  0  0  0  0  0  0  0  0
   -3.5799   -0.2681    0.4800 O   0  0  0  0  0  0  0  0  0  0  0  0
   -3.6195   -1.5354    1.1644 C   0  0  0  0  0  0  0  0  0  0  0  0
   -3.0040   -1.4250    2.5456 C   0  0  0  0  0  0  0  0  0  0  0  0
    4.1518    0.6318   -2.7824 H   0  0  0  0  0  0  0  0  0  0  0  0
    3.6858    1.8563   -1.5921 H   0  0  0  0  0  0  0  0  0  0  0  0
    5.3094    1.8836   -2.2947 H   0  0  0  0  0  0  0  0  0  0  0  0
    5.2691    0.9503    0.0474 H   0  0  0  0  0  0  0  0  0  0  0  0
    5.8893   -0.2269   -1.1476 H   0  0  0  0  0  0  0  0  0  0  0  0
    1.8245   -2.6316    2.5713 H   0  0  0  0  0  0  0  0  0  0  0  0
    0.9539   -1.1281    2.1746 H   0  0  0  0  0  0  0  0  0  0  0  0
    0.7991   -3.7383    0.5723 H   0  0  0  0  0  0  0  0  0  0  0  0
   -0.4277   -3.1935    1.7279 H   0  0  0  0  0  0  0  0  0  0  0  0
   -0.1378   -2.2860    0.2346 H   0  0  0  0  0  0  0  0  0  0  0  0
   -0.2690    1.7542   -1.3362 H   0  0  0  0  0  0  0  0  0  0  0  0
    0.9729    2.0209   -0.0563 H   0  0  0  0  0  0  0  0  0  0  0  0
   -2.9646    2.5850    0.5794 H   0  0  0  0  0  0  0  0  0  0  0  0
   -3.1031    3.4643   -0.9722 H   0  0  0  0  0  0  0  0  0  0  0  0
   -5.2956    3.4163    0.1915 H   0  0  0  0  0  0  0  0  0  0  0  0
   -5.3733    2.4738   -1.3065 H   0  0  0  0  0  0  0  0  0  0  0  0
   -5.2438    1.6462    0.2494 H   0  0  0  0  0  0  0  0  0  0  0  0
   -4.6808   -1.7836    1.2236 H   0  0  0  0  0  0  0  0  0  0  0  0
   -3.1061   -2.2831    0.5514 H   0  0  0  0  0  0  0  0  0  0  0  0
   -1.9551   -1.1454    2.4755 H   0  0  0  0  0  0  0  0  0  0  0  0
   -3.5255   -0.6703    3.1274 H   0  0  0  0  0  0  0  0  0  0  0  0
   -3.0855   -2.3829    3.0490 H   0  0  0  0  0  0  0  0  0  0  0  0
  1  2  1  0  0  0  0
  2  3  1  0  0  0  0
  3  4  2  0  0  0  0
  4  5  2  0  0  0  0
  4  6  2  0  0  0  0
  6  7  1  0  0  0  0
  7  8  1  0  0  0  0
  4  9  1  0  0  0  0
  9 10  1  0  0  0  0
 10 11  1  0  0  0  0
 11 12  1  0  0  0  0
 12 13  2  0  0  0  0
 12 14  2  0  0  0  0
 14 15  1  0  0  0  0
 15 16  1  0  0  0  0
 12 17  2  0  0  0  0
 17 18  1  0  0  0  0
 18 19  1  0  0  0  0
  1 20  1  0  0  0  0
  1 21  1  0  0  0  0
  1 22  1  0  0  0  0
  2 23  1  0  0  0  0
  2 24  1  0  0  0  0
  7 25  1  0  0  0  0
  7 26  1  0  0  0  0
  8 27  1  0  0  0  0
  8 28  1  0  0  0  0
  8 29  1  0  0  0  0
 10 30  1  0  0  0  0
 10 31  1  0  0  0  0
 15 32  1  0  0  0  0
 15 33  1  0  0  0  0
 16 34  1  0  0  0  0
 16 35  1  0  0  0  0
 16 36  1  0  0  0  0
 18 37  1  0  0  0  0
 18 38  1  0  0  0  0
 19 39  1  0  0  0  0
 19 40  1  0  0  0  0
 19 41  1  0  0  0  0
M  END
