 xtb: 6.7.1 (edcfbbe)
          04092505213D

 41 40  0     0  0            999 V2000
    3.1681   -2.4433   -2.2347 C   0  0  0  0  0  0  0  0  0  0  0  0
    4.2805   -1.9503   -1.3341 C   0  0  0  0  0  0  0  0  0  0  0  0
    4.0711   -0.5866   -0.8915 O   0  0  0  0  0  0  0  0  0  0  0  0
    2.9125   -0.0855    0.0459 P   0  0  0  0  0  0  0  0  0  0  0  0
    3.3840    1.6628    0.7935 S   0  0  0  0  0  0  0  0  0  0  0  0
    2.7647   -1.3163    1.0462 O   0  0  0  0  0  0  0  0  0  0  0  0
    1.6636   -1.5162    1.9479 C   0  0  0  0  0  0  0  0  0  0  0  0
    1.6424   -0.5072    3.0777 C   0  0  0  0  0  0  0  0  0  0  0  0
    1.1080   -0.0937   -1.1197 S   0  0  0  0  0  0  0  0  0  0  0  0
    0.3530    1.4237   -0.4933 C   0  0  0  0  0  0  0  0  0  0  0  0
   -0.8457    1.1199    0.8235 S   0  0  0  0  0  0  0  0  0  0  0  0
   -2.4039    0.4016   -0.4519 P   0  0  0  0  0  0  0  0  0  0  0  0
   -2.5561    1.3244   -2.1696 S   0  0  0  0  0  0  0  0  0  0  0  0
   -3.6767    0.4678    0.4938 O   0  0  0  0  0  0  0  0  0  0  0  0
   -4.2645    1.7331    0.8619 C   0  0  0  0  0  0  0  0  0  0  0  0
   -5.6302    1.4535    1.4552 C   0  0  0  0  0  0  0  0  0  0  0  0
   -2.1689   -1.1429   -0.6279 O   0  0  0  0  0  0  0  0  0  0  0  0
   -2.1311   -2.0764    0.4825 C   0  0  0  0  0  0  0  0  0  0  0  0
   -3.4739   -2.7554    0.6544 C   0  0  0  0  0  0  0  0  0  0  0  0
    3.0311   -1.7670   -3.0749 H   0  0  0  0  0  0  0  0  0  0  0  0
    3.4241   -3.4298   -2.6085 H   0  0  0  0  0  0  0  0  0  0  0  0
    2.2307   -2.5054   -1.6845 H   0  0  0  0  0  0  0  0  0  0  0  0
    5.2313   -1.8941   -1.8663 H   0  0  0  0  0  0  0  0  0  0  0  0
    4.3839   -2.5842   -0.4519 H   0  0  0  0  0  0  0  0  0  0  0  0
    0.7325   -1.4734    1.3744 H   0  0  0  0  0  0  0  0  0  0  0  0
    1.8194   -2.5292    2.3232 H   0  0  0  0  0  0  0  0  0  0  0  0
    2.6052   -0.4861    3.5815 H   0  0  0  0  0  0  0  0  0  0  0  0
    1.4298    0.4902    2.6964 H   0  0  0  0  0  0  0  0  0  0  0  0
    0.8695   -0.7809    3.7886 H   0  0  0  0  0  0  0  0  0  0  0  0
   -0.1611    1.9009   -1.3286 H   0  0  0  0  0  0  0  0  0  0  0  0
    1.1357    2.0670   -0.0836 H   0  0  0  0  0  0  0  0  0  0  0  0
   -3.6045    2.2185    1.5860 H   0  0  0  0  0  0  0  0  0  0  0  0
   -4.3347    2.3582   -0.0342 H   0  0  0  0  0  0  0  0  0  0  0  0
   -5.5332    0.8133    2.3272 H   0  0  0  0  0  0  0  0  0  0  0  0
   -6.0888    2.3920    1.7488 H   0  0  0  0  0  0  0  0  0  0  0  0
   -6.2624    0.9608    0.7219 H   0  0  0  0  0  0  0  0  0  0  0  0
   -1.3559   -2.7939    0.2070 H   0  0  0  0  0  0  0  0  0  0  0  0
   -1.8428   -1.5372    1.3894 H   0  0  0  0  0  0  0  0  0  0  0  0
   -3.3999   -3.4928    1.4475 H   0  0  0  0  0  0  0  0  0  0  0  0
   -4.2348   -2.0240    0.9126 H   0  0  0  0  0  0  0  0  0  0  0  0
   -3.7622   -3.2489   -0.2696 H   0  0  0  0  0  0  0  0  0  0  0  0
  1  2  1  0  0  0  0
  2  3  1  0  0  0  0
  3  4  2  0  0  0  0
  4  5  2  0  0  0  0
  4  6  2  0  0  0  0
  6  7  1  0  0  0  0
  7  8  1  0  0  0  0
  4  9  1  0  0  0  0
  9 10  1  0  0  0  0
 10 11  1  0  0  0  0
 11 12  1  0  0  0  0
 12 13  2  0  0  0  0
 12 14  2  0  0  0  0
 14 15  1  0  0  0  0
 15 16  1  0  0  0  0
 12 17  2  0  0  0  0
 17 18  1  0  0  0  0
 18 19  1  0  0  0  0
  1 20  1  0  0  0  0
  1 21  1  0  0  0  0
  1 22  1  0  0  0  0
  2 23  1  0  0  0  0
  2 24  1  0  0  0  0
  7 25  1  0  0  0  0
  7 26  1  0  0  0  0
  8 27  1  0  0  0  0
  8 28  1  0  0  0  0
  8 29  1  0  0  0  0
 10 30  1  0  0  0  0
 10 31  1  0  0  0  0
 15 32  1  0  0  0  0
 15 33  1  0  0  0  0
 16 34  1  0  0  0  0
 16 35  1  0  0  0  0
 16 36  1  0  0  0  0
 18 37  1  0  0  0  0
 18 38  1  0  0  0  0
 19 39  1  0  0  0  0
 19 40  1  0  0  0  0
 19 41  1  0  0  0  0
M  END
