 xtb: 6.7.1 (edcfbbe)
          04092505213D

 41 40  0     0  0            999 V2000
    5.1425    1.3490   -0.4388 C   0  0  0  0  0  0  0  0  0  0  0  0
    4.8032   -0.1225   -0.5654 C   0  0  0  0  0  0  0  0  0  0  0  0
    3.5672   -0.4406    0.1007 O   0  0  0  0  0  0  0  0  0  0  0  0
    2.1476   -0.0314   -0.5137 P   0  0  0  0  0  0  0  0  0  0  0  0
    2.0841    0.0788   -2.4595 S   0  0  0  0  0  0  0  0  0  0  0  0
    1.7457    1.3343    0.1881 O   0  0  0  0  0  0  0  0  0  0  0  0
    1.7560    1.4955    1.6271 C   0  0  0  0  0  0  0  0  0  0  0  0
    2.2079    2.9060    1.9445 C   0  0  0  0  0  0  0  0  0  0  0  0
    1.0636   -1.5745    0.4476 S   0  0  0  0  0  0  0  0  0  0  0  0
   -0.0607   -2.0700   -0.9028 C   0  0  0  0  0  0  0  0  0  0  0  0
   -1.7878   -2.0932   -0.3842 S   0  0  0  0  0  0  0  0  0  0  0  0
   -1.9750   -0.0202    0.0741 P   0  0  0  0  0  0  0  0  0  0  0  0
   -1.1486    1.2047   -1.2101 S   0  0  0  0  0  0  0  0  0  0  0  0
   -1.4192    0.1768    1.5341 O   0  0  0  0  0  0  0  0  0  0  0  0
   -1.8983   -0.5873    2.6747 C   0  0  0  0  0  0  0  0  0  0  0  0
   -2.9151    0.2142    3.4598 C   0  0  0  0  0  0  0  0  0  0  0  0
   -3.5406    0.1382    0.2695 O   0  0  0  0  0  0  0  0  0  0  0  0
   -4.4435    0.0726   -0.8547 C   0  0  0  0  0  0  0  0  0  0  0  0
   -5.7854    0.6116   -0.4026 C   0  0  0  0  0  0  0  0  0  0  0  0
    6.0879    1.5449   -0.9347 H   0  0  0  0  0  0  0  0  0  0  0  0
    4.3636    1.9463   -0.9136 H   0  0  0  0  0  0  0  0  0  0  0  0
    5.2202    1.6313    0.6082 H   0  0  0  0  0  0  0  0  0  0  0  0
    5.5410   -0.7553   -0.0704 H   0  0  0  0  0  0  0  0  0  0  0  0
    4.7130   -0.4074   -1.6183 H   0  0  0  0  0  0  0  0  0  0  0  0
    0.7338    1.3206    1.9724 H   0  0  0  0  0  0  0  0  0  0  0  0
    2.4233    0.7463    2.0638 H   0  0  0  0  0  0  0  0  0  0  0  0
    2.1646    3.0596    3.0180 H   0  0  0  0  0  0  0  0  0  0  0  0
    3.2246    3.0675    1.5969 H   0  0  0  0  0  0  0  0  0  0  0  0
    1.5537    3.6190    1.4501 H   0  0  0  0  0  0  0  0  0  0  0  0
    0.1823   -3.0874   -1.1984 H   0  0  0  0  0  0  0  0  0  0  0  0
    0.0699   -1.3750   -1.7371 H   0  0  0  0  0  0  0  0  0  0  0  0
   -2.3239   -1.5278    2.3153 H   0  0  0  0  0  0  0  0  0  0  0  0
   -1.0015   -0.7923    3.2626 H   0  0  0  0  0  0  0  0  0  0  0  0
   -3.7878    0.4170    2.8451 H   0  0  0  0  0  0  0  0  0  0  0  0
   -3.2152   -0.3559    4.3334 H   0  0  0  0  0  0  0  0  0  0  0  0
   -2.4840    1.1591    3.7785 H   0  0  0  0  0  0  0  0  0  0  0  0
   -4.0238    0.6675   -1.6724 H   0  0  0  0  0  0  0  0  0  0  0  0
   -4.5162   -0.9711   -1.1717 H   0  0  0  0  0  0  0  0  0  0  0  0
   -6.1677    0.0148    0.4203 H   0  0  0  0  0  0  0  0  0  0  0  0
   -5.6829    1.6425   -0.0756 H   0  0  0  0  0  0  0  0  0  0  0  0
   -6.4832    0.5676   -1.2322 H   0  0  0  0  0  0  0  0  0  0  0  0
  1  2  1  0  0  0  0
  2  3  1  0  0  0  0
  3  4  1  0  0  0  0
  4  5  2  0  0  0  0
  4  6  2  0  0  0  0
  6  7  1  0  0  0  0
  7  8  1  0  0  0  0
  4  9  1  0  0  0  0
  9 10  1  0  0  0  0
 10 11  1  0  0  0  0
 11 12  1  0  0  0  0
 12 13  2  0  0  0  0
 12 14  2  0  0  0  0
 14 15  1  0  0  0  0
 15 16  1  0  0  0  0
 12 17  2  0  0  0  0
 17 18  1  0  0  0  0
 18 19  1  0  0  0  0
  1 20  1  0  0  0  0
  1 21  1  0  0  0  0
  1 22  1  0  0  0  0
  2 23  1  0  0  0  0
  2 24  1  0  0  0  0
  7 25  1  0  0  0  0
  7 26  1  0  0  0  0
  8 27  1  0  0  0  0
  8 28  1  0  0  0  0
  8 29  1  0  0  0  0
 10 30  1  0  0  0  0
 10 31  1  0  0  0  0
 15 32  1  0  0  0  0
 15 33  1  0  0  0  0
 16 34  1  0  0  0  0
 16 35  1  0  0  0  0
 16 36  1  0  0  0  0
 18 37  1  0  0  0  0
 18 38  1  0  0  0  0
 19 39  1  0  0  0  0
 19 40  1  0  0  0  0
 19 41  1  0  0  0  0
M  END
