 xtb: 6.7.1 (edcfbbe)
          04092505213D

 41 40  0     0  0            999 V2000
    4.0064   -1.9037   -2.1033 C   0  0  0  0  0  0  0  0  0  0  0  0
    4.5962   -1.4896   -0.7706 C   0  0  0  0  0  0  0  0  0  0  0  0
    3.5840   -1.2035    0.2105 O   0  0  0  0  0  0  0  0  0  0  0  0
    2.5984    0.0354    0.0856 P   0  0  0  0  0  0  0  0  0  0  0  0
    3.4121    1.6692   -0.6196 S   0  0  0  0  0  0  0  0  0  0  0  0
    2.1030    0.2449    1.5660 O   0  0  0  0  0  0  0  0  0  0  0  0
    1.2026   -0.5909    2.3314 C   0  0  0  0  0  0  0  0  0  0  0  0
    1.5920   -2.0531    2.3164 C   0  0  0  0  0  0  0  0  0  0  0  0
    0.9316   -0.7193   -1.0224 S   0  0  0  0  0  0  0  0  0  0  0  0
    0.2755    0.8898   -1.5093 C   0  0  0  0  0  0  0  0  0  0  0  0
   -0.4852    1.7753   -0.1188 S   0  0  0  0  0  0  0  0  0  0  0  0
   -2.2771    0.6460   -0.0934 P   0  0  0  0  0  0  0  0  0  0  0  0
   -3.0337    0.2438   -1.8602 S   0  0  0  0  0  0  0  0  0  0  0  0
   -3.0504    1.6164    0.8886 O   0  0  0  0  0  0  0  0  0  0  0  0
   -4.1791    1.2004    1.6892 C   0  0  0  0  0  0  0  0  0  0  0  0
   -5.4041    0.9162    0.8437 C   0  0  0  0  0  0  0  0  0  0  0  0
   -2.0021   -0.6382    0.8073 O   0  0  0  0  0  0  0  0  0  0  0  0
   -2.0434   -2.0015    0.3408 C   0  0  0  0  0  0  0  0  0  0  0  0
   -3.1129   -2.7569    1.1044 C   0  0  0  0  0  0  0  0  0  0  0  0
    3.2928   -2.7125   -1.9690 H   0  0  0  0  0  0  0  0  0  0  0  0
    3.4980   -1.0585   -2.5647 H   0  0  0  0  0  0  0  0  0  0  0  0
    4.8048   -2.2323   -2.7609 H   0  0  0  0  0  0  0  0  0  0  0  0
    5.2245   -0.6013   -0.8883 H   0  0  0  0  0  0  0  0  0  0  0  0
    5.1742   -2.2964   -0.3179 H   0  0  0  0  0  0  0  0  0  0  0  0
    1.2651   -0.1663    3.3348 H   0  0  0  0  0  0  0  0  0  0  0  0
    0.1918   -0.4448    1.9408 H   0  0  0  0  0  0  0  0  0  0  0  0
    1.5249   -2.4524    1.3059 H   0  0  0  0  0  0  0  0  0  0  0  0
    2.6124   -2.1729    2.6707 H   0  0  0  0  0  0  0  0  0  0  0  0
    0.9189   -2.6054    2.9653 H   0  0  0  0  0  0  0  0  0  0  0  0
   -0.4727    0.7160   -2.2841 H   0  0  0  0  0  0  0  0  0  0  0  0
    1.0914    1.5149   -1.8736 H   0  0  0  0  0  0  0  0  0  0  0  0
   -3.8881    0.3205    2.2681 H   0  0  0  0  0  0  0  0  0  0  0  0
   -4.3431    2.0465    2.3584 H   0  0  0  0  0  0  0  0  0  0  0  0
   -5.2128    0.0838    0.1678 H   0  0  0  0  0  0  0  0  0  0  0  0
   -6.2390    0.6658    1.4907 H   0  0  0  0  0  0  0  0  0  0  0  0
   -5.6606    1.7876    0.2463 H   0  0  0  0  0  0  0  0  0  0  0  0
   -2.2497   -2.0022   -0.7345 H   0  0  0  0  0  0  0  0  0  0  0  0
   -1.0513   -2.4200    0.5175 H   0  0  0  0  0  0  0  0  0  0  0  0
   -3.0934   -3.7981    0.7999 H   0  0  0  0  0  0  0  0  0  0  0  0
   -2.9288   -2.6925    2.1731 H   0  0  0  0  0  0  0  0  0  0  0  0
   -4.0952   -2.3439    0.8876 H   0  0  0  0  0  0  0  0  0  0  0  0
  1  2  1  0  0  0  0
  2  3  1  0  0  0  0
  3  4  2  0  0  0  0
  4  5  2  0  0  0  0
  4  6  2  0  0  0  0
  6  7  1  0  0  0  0
  7  8  1  0  0  0  0
  4  9  1  0  0  0  0
  9 10  1  0  0  0  0
 10 11  1  0  0  0  0
 11 12  1  0  0  0  0
 12 13  2  0  0  0  0
 12 14  2  0  0  0  0
 14 15  1  0  0  0  0
 15 16  1  0  0  0  0
 12 17  2  0  0  0  0
 17 18  1  0  0  0  0
 18 19  1  0  0  0  0
  1 20  1  0  0  0  0
  1 21  1  0  0  0  0
  1 22  1  0  0  0  0
  2 23  1  0  0  0  0
  2 24  1  0  0  0  0
  7 25  1  0  0  0  0
  7 26  1  0  0  0  0
  8 27  1  0  0  0  0
  8 28  1  0  0  0  0
  8 29  1  0  0  0  0
 10 30  1  0  0  0  0
 10 31  1  0  0  0  0
 15 32  1  0  0  0  0
 15 33  1  0  0  0  0
 16 34  1  0  0  0  0
 16 35  1  0  0  0  0
 16 36  1  0  0  0  0
 18 37  1  0  0  0  0
 18 38  1  0  0  0  0
 19 39  1  0  0  0  0
 19 40  1  0  0  0  0
 19 41  1  0  0  0  0
M  END
