 xtb: 6.7.1 (edcfbbe)
          04092513593D

 41 40  0     0  0            999 V2000
    1.0971   -0.8189    3.2265 C   0  0  0  0  0  0  0  0  0  0  0  0
    1.2979    0.4835    2.4765 C   0  0  0  0  0  0  0  0  0  0  0  0
    2.5051    0.4838    1.6980 O   0  0  0  0  0  0  0  0  0  0  0  0
    2.6890   -0.2333    0.2963 P   0  0  0  0  0  0  0  0  0  0  0  0
    2.8826   -2.1881    0.2654 S   0  0  0  0  0  0  0  0  0  0  0  0
    3.9884    0.5737   -0.1024 O   0  0  0  0  0  0  0  0  0  0  0  0
    4.9571    0.0756   -1.0419 C   0  0  0  0  0  0  0  0  0  0  0  0
    4.4540    0.1446   -2.4702 C   0  0  0  0  0  0  0  0  0  0  0  0
    1.1322    0.5592   -0.9376 S   0  0  0  0  0  0  0  0  0  0  0  0
    0.1531   -0.9454   -1.1983 C   0  0  0  0  0  0  0  0  0  0  0  0
   -1.0159   -1.3134    0.1433 S   0  0  0  0  0  0  0  0  0  0  0  0
   -2.3538    0.2812   -0.2106 P   0  0  0  0  0  0  0  0  0  0  0  0
   -2.7011    0.7762   -2.0788 S   0  0  0  0  0  0  0  0  0  0  0  0
   -1.6721    1.3979    0.6887 O   0  0  0  0  0  0  0  0  0  0  0  0
   -1.8995    2.8069    0.4805 C   0  0  0  0  0  0  0  0  0  0  0  0
   -3.2930    3.2275    0.8990 C   0  0  0  0  0  0  0  0  0  0  0  0
   -3.6384   -0.0876    0.6492 O   0  0  0  0  0  0  0  0  0  0  0  0
   -4.7793   -0.7773    0.1080 C   0  0  0  0  0  0  0  0  0  0  0  0
   -4.4921   -2.2382   -0.1745 C   0  0  0  0  0  0  0  0  0  0  0  0
    0.2165   -0.7335    3.8554 H   0  0  0  0  0  0  0  0  0  0  0  0
    0.9521   -1.6434    2.5307 H   0  0  0  0  0  0  0  0  0  0  0  0
    1.9644   -1.0324    3.8458 H   0  0  0  0  0  0  0  0  0  0  0  0
    1.4340    1.3188    3.1664 H   0  0  0  0  0  0  0  0  0  0  0  0
    0.4442    0.6914    1.8229 H   0  0  0  0  0  0  0  0  0  0  0  0
    5.8230    0.7224   -0.8916 H   0  0  0  0  0  0  0  0  0  0  0  0
    5.2132   -0.9541   -0.7717 H   0  0  0  0  0  0  0  0  0  0  0  0
    5.2600   -0.1224   -3.1465 H   0  0  0  0  0  0  0  0  0  0  0  0
    3.6298   -0.5532   -2.6108 H   0  0  0  0  0  0  0  0  0  0  0  0
    4.1082    1.1490   -2.7007 H   0  0  0  0  0  0  0  0  0  0  0  0
    0.8214   -1.8054   -1.2605 H   0  0  0  0  0  0  0  0  0  0  0  0
   -0.3992   -0.7956   -2.1251 H   0  0  0  0  0  0  0  0  0  0  0  0
   -1.1329    3.2893    1.0886 H   0  0  0  0  0  0  0  0  0  0  0  0
   -1.7268    3.0315   -0.5771 H   0  0  0  0  0  0  0  0  0  0  0  0
   -4.0340    2.7634    0.2496 H   0  0  0  0  0  0  0  0  0  0  0  0
   -3.4862    2.9270    1.9254 H   0  0  0  0  0  0  0  0  0  0  0  0
   -3.3793    4.3067    0.8159 H   0  0  0  0  0  0  0  0  0  0  0  0
   -5.5434   -0.6623    0.8782 H   0  0  0  0  0  0  0  0  0  0  0  0
   -5.0926   -0.2645   -0.8072 H   0  0  0  0  0  0  0  0  0  0  0  0
   -4.0920   -2.7254    0.7109 H   0  0  0  0  0  0  0  0  0  0  0  0
   -5.4133   -2.7308   -0.4705 H   0  0  0  0  0  0  0  0  0  0  0  0
   -3.7682   -2.3300   -0.9830 H   0  0  0  0  0  0  0  0  0  0  0  0
  1  2  1  0  0  0  0
  2  3  1  0  0  0  0
  3  4  2  0  0  0  0
  4  5  2  0  0  0  0
  4  6  2  0  0  0  0
  6  7  1  0  0  0  0
  7  8  1  0  0  0  0
  4  9  1  0  0  0  0
  9 10  1  0  0  0  0
 10 11  1  0  0  0  0
 11 12  1  0  0  0  0
 12 13  2  0  0  0  0
 12 14  2  0  0  0  0
 14 15  1  0  0  0  0
 15 16  1  0  0  0  0
 12 17  2  0  0  0  0
 17 18  1  0  0  0  0
 18 19  1  0  0  0  0
  1 20  1  0  0  0  0
  1 21  1  0  0  0  0
  1 22  1  0  0  0  0
  2 23  1  0  0  0  0
  2 24  1  0  0  0  0
  7 25  1  0  0  0  0
  7 26  1  0  0  0  0
  8 27  1  0  0  0  0
  8 28  1  0  0  0  0
  8 29  1  0  0  0  0
 10 30  1  0  0  0  0
 10 31  1  0  0  0  0
 15 32  1  0  0  0  0
 15 33  1  0  0  0  0
 16 34  1  0  0  0  0
 16 35  1  0  0  0  0
 16 36  1  0  0  0  0
 18 37  1  0  0  0  0
 18 38  1  0  0  0  0
 19 39  1  0  0  0  0
 19 40  1  0  0  0  0
 19 41  1  0  0  0  0
M  END
