41
 xtb: 6.7.1 (edcfbbe)
C            6.11559403504015       -0.03495517386905       -1.62986955716797
C            4.90282131148291        0.57641563764232       -0.97870671406570
O            4.14071108039805       -0.52120004799853       -0.36693351520693
P            2.73388589367011       -0.20899714284285        0.34666825954027
S            2.66613651023974        1.23514050270724        1.65222721529925
O            2.51048715716300       -1.70244617283342        0.89471282529688
C            1.32438345161353       -2.04536564581117        1.69701611751909
C            0.39955735255796       -2.92543195586367        0.89410046928382
S            1.41269835327085        0.02070292871390       -1.30916431962690
C            0.31660091294045        1.37878092200541       -0.75342275116679
S           -0.91073496106446        0.94512075470475        0.54705647628183
P           -2.57620847992718        0.34412510878114       -0.62833844010562
S           -2.16801023314756       -0.70447893915695       -2.21245533161048
O           -3.40628478609688        1.66100527581289       -1.00879290633136
C           -3.92195437446342        2.58360548238051        0.02326944723939
C           -5.42750877046581        2.51779545972737        0.03289375874933
O           -3.51071340518537       -0.30761362285270        0.50709542694051
C           -3.24817957835889       -1.65113768216158        1.05290296976255
C           -2.81975694519418       -1.54727493891790        2.49437466821756
H            6.70929832880868        0.76276076473737       -2.08631348875682
H            6.73780827686990       -0.54939164697597       -0.89220438456527
H            5.82665016818690       -0.74225900249583       -2.41219548731112
H            4.26161733691336        1.08049271420776       -1.70989061637866
H            5.17539365897557        1.28237835138859       -0.18851121180961
H            1.71993772572590       -2.56441352315881        2.57304049134153
H            0.83095906129730       -1.12707966479398        2.03107808553675
H            0.92601493271326       -3.81362094531849        0.53265261141690
H           -0.42196451492615       -3.25355691275404        1.53926417893257
H           -0.02145710594564       -2.38634514200665        0.04096079024887
H           -0.19519712193462        1.73916504779720       -1.64973359243879
H            0.92455236772733        2.18585619689169       -0.33850863081895
H           -3.49793712117834        2.32349484566878        0.99725529413158
H           -3.55502106307623        3.57073727078999       -0.26710904612798
H           -5.77571807688884        1.52245172377361        0.32255618298869
H           -5.80814278108900        3.24345144249513        0.75906154855665
H           -5.83579589074200        2.76831715997128       -0.95021503919504
H           -4.19659259929101       -2.18397991214036        0.95123209432470
H           -2.49704401241790       -2.15076879983914        0.43369221142027
H           -3.56584680937769       -1.00824201688751        3.08516177974504
H           -2.72194961974020       -2.55739847077899        2.90493315824142
H           -1.85333937579743       -1.04426340958506        2.59188462679954
