41
 xtb: 6.7.1 (edcfbbe)
C            4.20574823848224       -1.97982637000786       -2.28346270716109
C            4.69645105704591       -1.59597025011262       -0.91033141606032
O            3.59085342551845       -1.32300234202783        0.02115655056046
P            2.76923767726116        0.05932529140745        0.03553092568748
S            3.70685293096108        1.67034086447237       -0.52467610251306
O            2.30269086924872        0.17014401703292        1.56526058557758
C            1.25841926218197       -0.65047446696841        2.20414737061185
C            1.64162144582082       -2.10308031733310        2.34123900050361
S            1.07857449906219       -0.48088294531630       -1.13933850302567
C            0.31914356287769        1.16609494612287       -1.43082936641933
S           -0.63111003948141        1.89677781156670       -0.04737461521423
P           -2.34571623139813        0.63660265366404       -0.06256150931808
S           -2.94925194960649        0.08334278844501       -1.83125581427583
O           -3.25601833227071        1.63350802517917        0.80737663934032
C           -4.38157164742656        1.15825406721021        1.63412624002440
C           -5.59466600262109        0.82237536583728        0.80352114683825
O           -2.05199396564891       -0.55545208561428        0.97388015412159
C           -2.04306229294720       -1.98322351941481        0.63697510849114
C           -3.29404869127186       -2.63240579859098        1.17222035240057
H            3.50729736937602       -2.82007188458478       -2.23052197432814
H            3.71989915768690       -1.14103347128571       -2.78927728929650
H            5.06828839549041       -2.28627541147248       -2.88444736972909
H            5.34487274504153       -0.71534697347890       -0.93717069036239
H            5.23100510870896       -2.41828929752901       -0.43087089642268
H            1.14039836641839       -0.17586406912367        3.18036570276294
H            0.33461133760946       -0.52002268798758        1.63554825562009
H            1.66999704769412       -2.61469481845275        1.37553714710568
H            2.61286517204926       -2.21072262596208        2.83279409655397
H            0.88623607962330       -2.59464815836467        2.96355678058140
H           -0.33766615591830        1.04439082378481       -2.29758549865342
H            1.10744555305605        1.88641781696548       -1.67152778880567
H           -4.03848399249771        0.30659396991759        2.22789740734109
H           -4.57260185546935        2.00143154114799        2.30051562752082
H           -5.42081683180366       -0.04758787356411        0.16544414009075
H           -6.42184020241307        0.58949943789121        1.48221526175654
H           -5.88927590078422        1.67016025612415        0.17841749751783
H           -1.95681215992462       -2.09500107004835       -0.44709341955746
H           -1.14090490507297       -2.37809255828314        1.11140144643671
H           -3.25047628557723       -3.70713784432879        0.96674480039648
H           -3.37782572375742       -2.49224473889966        2.25381405726809
H           -4.18628446199139       -2.22401023769831        0.68758324391573
