 xtb: 6.7.1 (edcfbbe)
          04092513583D

 41 40  0     0  0            999 V2000
    0.5231   -2.2865    1.9353 C   0  0  0  0  0  0  0  0  0  0  0  0
    1.9055   -1.7565    2.2597 C   0  0  0  0  0  0  0  0  0  0  0  0
    2.2332   -0.5932    1.4794 O   0  0  0  0  0  0  0  0  0  0  0  0
    2.6123   -0.7000   -0.0536 P   0  0  0  0  0  0  0  0  0  0  0  0
    3.4048   -2.3879   -0.6476 S   0  0  0  0  0  0  0  0  0  0  0  0
    3.5213    0.6040   -0.0913 O   0  0  0  0  0  0  0  0  0  0  0  0
    4.1756    1.0357   -1.3025 C   0  0  0  0  0  0  0  0  0  0  0  0
    5.6111    0.5479   -1.3557 C   0  0  0  0  0  0  0  0  0  0  0  0
    0.8727   -0.1447   -1.1579 S   0  0  0  0  0  0  0  0  0  0  0  0
    0.4571    1.4151   -0.3159 C   0  0  0  0  0  0  0  0  0  0  0  0
   -0.6639    1.2285    1.0991 S   0  0  0  0  0  0  0  0  0  0  0  0
   -2.3622    0.5871    0.0238 P   0  0  0  0  0  0  0  0  0  0  0  0
   -2.6867    1.4160   -1.7272 S   0  0  0  0  0  0  0  0  0  0  0  0
   -3.5531    0.7112    1.0699 O   0  0  0  0  0  0  0  0  0  0  0  0
   -4.4201    1.8560    1.1569 C   0  0  0  0  0  0  0  0  0  0  0  0
   -3.7346    3.0560    1.7787 C   0  0  0  0  0  0  0  0  0  0  0  0
   -2.0985   -0.9763    0.0226 O   0  0  0  0  0  0  0  0  0  0  0  0
   -2.6632   -1.8618   -0.9633 C   0  0  0  0  0  0  0  0  0  0  0  0
   -4.1508   -2.0633   -0.7619 C   0  0  0  0  0  0  0  0  0  0  0  0
    0.4899   -2.6240    0.8992 H   0  0  0  0  0  0  0  0  0  0  0  0
    0.2978   -3.1255    2.5861 H   0  0  0  0  0  0  0  0  0  0  0  0
   -0.2279   -1.5127    2.0764 H   0  0  0  0  0  0  0  0  0  0  0  0
    2.6620   -2.5267    2.0754 H   0  0  0  0  0  0  0  0  0  0  0  0
    1.9710   -1.4092    3.2916 H   0  0  0  0  0  0  0  0  0  0  0  0
    3.6106    0.6770   -2.1693 H   0  0  0  0  0  0  0  0  0  0  0  0
    4.1361    2.1266   -1.2670 H   0  0  0  0  0  0  0  0  0  0  0  0
    6.1537    0.8820   -0.4760 H   0  0  0  0  0  0  0  0  0  0  0  0
    5.6423   -0.5386   -1.3957 H   0  0  0  0  0  0  0  0  0  0  0  0
    6.0881    0.9486   -2.2449 H   0  0  0  0  0  0  0  0  0  0  0  0
   -0.0216    2.0403   -1.0692 H   0  0  0  0  0  0  0  0  0  0  0  0
    1.3646    1.8740    0.0688 H   0  0  0  0  0  0  0  0  0  0  0  0
   -4.7782    2.0973    0.1508 H   0  0  0  0  0  0  0  0  0  0  0  0
   -5.2508    1.5077    1.7727 H   0  0  0  0  0  0  0  0  0  0  0  0
   -3.2997    2.7903    2.7387 H   0  0  0  0  0  0  0  0  0  0  0  0
   -2.9449    3.4200    1.1233 H   0  0  0  0  0  0  0  0  0  0  0  0
   -4.4652    3.8464    1.9219 H   0  0  0  0  0  0  0  0  0  0  0  0
   -2.4570   -1.4506   -1.9571 H   0  0  0  0  0  0  0  0  0  0  0  0
   -2.1085   -2.7918   -0.8307 H   0  0  0  0  0  0  0  0  0  0  0  0
   -4.5083   -2.8061   -1.4686 H   0  0  0  0  0  0  0  0  0  0  0  0
   -4.3522   -2.4015    0.2510 H   0  0  0  0  0  0  0  0  0  0  0  0
   -4.6811   -1.1277   -0.9348 H   0  0  0  0  0  0  0  0  0  0  0  0
  1  2  1  0  0  0  0
  2  3  1  0  0  0  0
  3  4  2  0  0  0  0
  4  5  2  0  0  0  0
  4  6  2  0  0  0  0
  6  7  1  0  0  0  0
  7  8  1  0  0  0  0
  4  9  1  0  0  0  0
  9 10  1  0  0  0  0
 10 11  1  0  0  0  0
 11 12  1  0  0  0  0
 12 13  2  0  0  0  0
 12 14  2  0  0  0  0
 14 15  1  0  0  0  0
 15 16  1  0  0  0  0
 12 17  2  0  0  0  0
 17 18  1  0  0  0  0
 18 19  1  0  0  0  0
  1 20  1  0  0  0  0
  1 21  1  0  0  0  0
  1 22  1  0  0  0  0
  2 23  1  0  0  0  0
  2 24  1  0  0  0  0
  7 25  1  0  0  0  0
  7 26  1  0  0  0  0
  8 27  1  0  0  0  0
  8 28  1  0  0  0  0
  8 29  1  0  0  0  0
 10 30  1  0  0  0  0
 10 31  1  0  0  0  0
 15 32  1  0  0  0  0
 15 33  1  0  0  0  0
 16 34  1  0  0  0  0
 16 35  1  0  0  0  0
 16 36  1  0  0  0  0
 18 37  1  0  0  0  0
 18 38  1  0  0  0  0
 19 39  1  0  0  0  0
 19 40  1  0  0  0  0
 19 41  1  0  0  0  0
M  END
