 xtb: 6.7.1 (edcfbbe)
          04092505213D

 41 40  0     0  0            999 V2000
    5.4892    1.4360   -1.5355 C   0  0  0  0  0  0  0  0  0  0  0  0
    3.9826    1.2920   -1.4582 C   0  0  0  0  0  0  0  0  0  0  0  0
    3.6863    0.2206   -0.5442 O   0  0  0  0  0  0  0  0  0  0  0  0
    2.2657    0.0700    0.1565 P   0  0  0  0  0  0  0  0  0  0  0  0
    1.6390    1.7418    0.9680 S   0  0  0  0  0  0  0  0  0  0  0  0
    2.5307   -1.1425    1.1261 O   0  0  0  0  0  0  0  0  0  0  0  0
    2.5795   -1.0316    2.5695 C   0  0  0  0  0  0  0  0  0  0  0  0
    1.5776   -1.9870    3.1848 C   0  0  0  0  0  0  0  0  0  0  0  0
    1.1107   -0.8289   -1.3811 S   0  0  0  0  0  0  0  0  0  0  0  0
   -0.0199   -1.8291   -0.3632 C   0  0  0  0  0  0  0  0  0  0  0  0
   -1.0140   -0.8714    0.8007 S   0  0  0  0  0  0  0  0  0  0  0  0
   -2.2767    0.1300   -0.6008 P   0  0  0  0  0  0  0  0  0  0  0  0
   -2.3092   -0.6557   -2.3948 S   0  0  0  0  0  0  0  0  0  0  0  0
   -1.7997    1.6344   -0.6112 O   0  0  0  0  0  0  0  0  0  0  0  0
   -2.2153    2.6588    0.3262 C   0  0  0  0  0  0  0  0  0  0  0  0
   -1.9247    2.2990    1.7673 C   0  0  0  0  0  0  0  0  0  0  0  0
   -3.6945    0.2256    0.1128 O   0  0  0  0  0  0  0  0  0  0  0  0
   -4.6892   -0.8061   -0.0164 C   0  0  0  0  0  0  0  0  0  0  0  0
   -4.2704   -2.0978    0.6552 C   0  0  0  0  0  0  0  0  0  0  0  0
    5.8895    1.6864   -0.5572 H   0  0  0  0  0  0  0  0  0  0  0  0
    5.9323    0.5025   -1.8698 H   0  0  0  0  0  0  0  0  0  0  0  0
    5.7359    2.2252   -2.2382 H   0  0  0  0  0  0  0  0  0  0  0  0
    3.5532    1.0393   -2.4323 H   0  0  0  0  0  0  0  0  0  0  0  0
    3.5111    2.2096   -1.0880 H   0  0  0  0  0  0  0  0  0  0  0  0
    3.6023   -1.2843    2.8543 H   0  0  0  0  0  0  0  0  0  0  0  0
    2.3658    0.0045    2.8525 H   0  0  0  0  0  0  0  0  0  0  0  0
    0.5659   -1.7162    2.8886 H   0  0  0  0  0  0  0  0  0  0  0  0
    1.7830   -3.0042    2.8636 H   0  0  0  0  0  0  0  0  0  0  0  0
    1.6580   -1.9311    4.2654 H   0  0  0  0  0  0  0  0  0  0  0  0
    0.5548   -2.5428    0.2212 H   0  0  0  0  0  0  0  0  0  0  0  0
   -0.6715   -2.3278   -1.0810 H   0  0  0  0  0  0  0  0  0  0  0  0
   -1.6397    3.5305    0.0111 H   0  0  0  0  0  0  0  0  0  0  0  0
   -3.2819    2.8365    0.1739 H   0  0  0  0  0  0  0  0  0  0  0  0
   -0.8598    2.1309    1.9085 H   0  0  0  0  0  0  0  0  0  0  0  0
   -2.2383    3.1204    2.4037 H   0  0  0  0  0  0  0  0  0  0  0  0
   -2.4681    1.4000    2.0516 H   0  0  0  0  0  0  0  0  0  0  0  0
   -5.5720   -0.3733    0.4563 H   0  0  0  0  0  0  0  0  0  0  0  0
   -4.8782   -0.9705   -1.0816 H   0  0  0  0  0  0  0  0  0  0  0  0
   -5.1044   -2.7922    0.6432 H   0  0  0  0  0  0  0  0  0  0  0  0
   -3.4353   -2.5428    0.1167 H   0  0  0  0  0  0  0  0  0  0  0  0
   -3.9690   -1.9125    1.6830 H   0  0  0  0  0  0  0  0  0  0  0  0
  1  2  1  0  0  0  0
  2  3  1  0  0  0  0
  3  4  2  0  0  0  0
  4  5  2  0  0  0  0
  4  6  2  0  0  0  0
  6  7  1  0  0  0  0
  7  8  1  0  0  0  0
  4  9  1  0  0  0  0
  9 10  1  0  0  0  0
 10 11  1  0  0  0  0
 11 12  1  0  0  0  0
 12 13  2  0  0  0  0
 12 14  2  0  0  0  0
 14 15  1  0  0  0  0
 15 16  1  0  0  0  0
 12 17  2  0  0  0  0
 17 18  1  0  0  0  0
 18 19  1  0  0  0  0
  1 20  1  0  0  0  0
  1 21  1  0  0  0  0
  1 22  1  0  0  0  0
  2 23  1  0  0  0  0
  2 24  1  0  0  0  0
  7 25  1  0  0  0  0
  7 26  1  0  0  0  0
  8 27  1  0  0  0  0
  8 28  1  0  0  0  0
  8 29  1  0  0  0  0
 10 30  1  0  0  0  0
 10 31  1  0  0  0  0
 15 32  1  0  0  0  0
 15 33  1  0  0  0  0
 16 34  1  0  0  0  0
 16 35  1  0  0  0  0
 16 36  1  0  0  0  0
 18 37  1  0  0  0  0
 18 38  1  0  0  0  0
 19 39  1  0  0  0  0
 19 40  1  0  0  0  0
 19 41  1  0  0  0  0
M  END
