 xtb: 6.7.1 (edcfbbe)
          04092507313D

 38 37  0     0  0            999 V2000
    4.3046   -1.9342    0.9660 C   0  0  0  0  0  0  0  0  0  0  0  0
    2.8284   -1.9780    0.6258 C   0  0  0  0  0  0  0  0  0  0  0  0
    2.5777   -1.0153   -0.4169 O   0  0  0  0  0  0  0  0  0  0  0  0
    1.4319   -1.0701   -1.0553 C   0  0  0  0  0  0  0  0  0  0  0  0
    0.5481   -1.8711   -0.8199 O   0  0  0  0  0  0  0  0  0  0  0  0
    1.3277   -0.0136   -2.1362 C   0  0  0  0  0  0  0  0  0  0  0  0
    0.1883    0.9614   -1.8266 C   0  0  0  0  0  0  0  0  0  0  0  0
    0.0655    1.6524   -2.6660 H   0  0  0  0  0  0  0  0  0  0  0  0
    0.4373    1.7741   -0.5691 C   0  0  0  0  0  0  0  0  0  0  0  0
   -0.4272    1.9535    0.2680 O   0  0  0  0  0  0  0  0  0  0  0  0
    1.6496    2.2479   -0.5227 O   0  0  0  0  0  0  0  0  0  0  0  0
    2.0760    2.9690    0.6542 C   0  0  0  0  0  0  0  0  0  0  0  0
    2.7183    2.0111    1.6431 C   0  0  0  0  0  0  0  0  0  0  0  0
   -1.4333    0.1417   -1.6664 S   0  0  0  0  0  0  0  0  0  0  0  0
   -1.6865   -0.2315    0.4224 P   0  0  0  0  0  0  0  0  0  0  0  0
   -0.3167   -0.5047    1.7978 S   0  0  0  0  0  0  0  0  0  0  0  0
   -2.7728    0.8013    0.9377 O   0  0  0  0  0  0  0  0  0  0  0  0
   -3.9964    1.0825    0.2377 C   0  0  0  0  0  0  0  0  0  0  0  0
   -2.6479   -1.5191    0.2943 O   0  0  0  0  0  0  0  0  0  0  0  0
   -2.1817   -2.8389    0.0213 C   0  0  0  0  0  0  0  0  0  0  0  0
    4.5134   -2.6751    1.7302 H   0  0  0  0  0  0  0  0  0  0  0  0
    4.8982   -2.1508    0.0827 H   0  0  0  0  0  0  0  0  0  0  0  0
    4.5727   -0.9519    1.3422 H   0  0  0  0  0  0  0  0  0  0  0  0
    2.2008   -1.7194    1.4848 H   0  0  0  0  0  0  0  0  0  0  0  0
    2.5213   -2.9632    0.2608 H   0  0  0  0  0  0  0  0  0  0  0  0
    1.1064   -0.5140   -3.0796 H   0  0  0  0  0  0  0  0  0  0  0  0
    2.2679    0.5324   -2.2000 H   0  0  0  0  0  0  0  0  0  0  0  0
    2.7936    3.6986    0.2788 H   0  0  0  0  0  0  0  0  0  0  0  0
    1.2101    3.4681    1.0964 H   0  0  0  0  0  0  0  0  0  0  0  0
    3.5390    1.4819    1.1670 H   0  0  0  0  0  0  0  0  0  0  0  0
    3.0921    2.5687    2.4951 H   0  0  0  0  0  0  0  0  0  0  0  0
    1.9868    1.2833    1.9927 H   0  0  0  0  0  0  0  0  0  0  0  0
   -4.4880    1.8491    0.8310 H   0  0  0  0  0  0  0  0  0  0  0  0
   -4.6072    0.1829    0.1808 H   0  0  0  0  0  0  0  0  0  0  0  0
   -3.7786    1.4516   -0.7647 H   0  0  0  0  0  0  0  0  0  0  0  0
   -1.8646   -2.9172   -1.0179 H   0  0  0  0  0  0  0  0  0  0  0  0
   -3.0258   -3.4937    0.2229 H   0  0  0  0  0  0  0  0  0  0  0  0
   -1.3399   -3.0817    0.6708 H   0  0  0  0  0  0  0  0  0  0  0  0
  1  2  1  0  0  0  0
  2  3  1  0  0  0  0
  3  4  4  0  0  0  0
  4  5  2  0  0  0  0
  4  6  1  0  0  0  0
  6  7  1  0  0  0  0
  7  8  1  0  0  0  0
  7  9  1  0  0  0  0
  9 10  2  0  0  0  0
  9 11  4  0  0  0  0
 11 12  1  0  0  0  0
 12 13  1  0  0  0  0
  7 14  1  0  0  0  0
 14 15  1  0  0  0  0
 15 16  2  0  0  0  0
 15 17  2  0  0  0  0
 17 18  1  0  0  0  0
 15 19  1  0  0  0  0
 19 20  1  0  0  0  0
  1 21  1  0  0  0  0
  1 22  1  0  0  0  0
  1 23  1  0  0  0  0
  2 24  1  0  0  0  0
  2 25  1  0  0  0  0
  6 26  1  0  0  0  0
  6 27  1  0  0  0  0
 12 28  1  0  0  0  0
 12 29  1  0  0  0  0
 13 30  1  0  0  0  0
 13 31  1  0  0  0  0
 13 32  1  0  0  0  0
 18 33  1  0  0  0  0
 18 34  1  0  0  0  0
 18 35  1  0  0  0  0
 20 36  1  0  0  0  0
 20 37  1  0  0  0  0
 20 38  1  0  0  0  0
M  END
