 xtb: 6.7.1 (edcfbbe)
          04092505203D

 41 40  0     0  0            999 V2000
    4.9527   -1.0143   -1.2281 C   0  0  0  0  0  0  0  0  0  0  0  0
    4.6907    0.4225   -0.8275 C   0  0  0  0  0  0  0  0  0  0  0  0
    3.5084    0.5500   -0.0164 O   0  0  0  0  0  0  0  0  0  0  0  0
    2.0576    0.3013   -0.6073 P   0  0  0  0  0  0  0  0  0  0  0  0
    1.7899    0.9525   -2.4363 S   0  0  0  0  0  0  0  0  0  0  0  0
    1.1248    1.0065    0.4655 O   0  0  0  0  0  0  0  0  0  0  0  0
    1.5235    1.2824    1.8332 C   0  0  0  0  0  0  0  0  0  0  0  0
    1.7046    0.0184    2.6484 C   0  0  0  0  0  0  0  0  0  0  0  0
    1.7208   -1.7819   -0.3575 S   0  0  0  0  0  0  0  0  0  0  0  0
   -0.0261   -1.7926   -0.8346 C   0  0  0  0  0  0  0  0  0  0  0  0
   -1.1529   -1.6489    0.5810 S   0  0  0  0  0  0  0  0  0  0  0  0
   -2.0204    0.2749    0.2517 P   0  0  0  0  0  0  0  0  0  0  0  0
   -1.5860    1.1846   -1.4251 S   0  0  0  0  0  0  0  0  0  0  0  0
   -1.6646    1.1013    1.5464 O   0  0  0  0  0  0  0  0  0  0  0  0
   -2.0405    0.6485    2.8760 C   0  0  0  0  0  0  0  0  0  0  0  0
   -3.3040    1.3407    3.3439 C   0  0  0  0  0  0  0  0  0  0  0  0
   -3.5796    0.0129    0.4693 O   0  0  0  0  0  0  0  0  0  0  0  0
   -4.4582   -0.3822   -0.5954 C   0  0  0  0  0  0  0  0  0  0  0  0
   -4.1254   -1.7538   -1.1471 C   0  0  0  0  0  0  0  0  0  0  0  0
    4.9563   -1.6591   -0.3532 H   0  0  0  0  0  0  0  0  0  0  0  0
    4.1772   -1.3551   -1.9123 H   0  0  0  0  0  0  0  0  0  0  0  0
    5.9142   -1.0767   -1.7275 H   0  0  0  0  0  0  0  0  0  0  0  0
    4.5713    1.0534   -1.7138 H   0  0  0  0  0  0  0  0  0  0  0  0
    5.4844    0.8171   -0.1915 H   0  0  0  0  0  0  0  0  0  0  0  0
    2.4442    1.8677    1.8077 H   0  0  0  0  0  0  0  0  0  0  0  0
    0.7040    1.9001    2.2039 H   0  0  0  0  0  0  0  0  0  0  0  0
    2.5507   -0.5530    2.2730 H   0  0  0  0  0  0  0  0  0  0  0  0
    1.8926    0.2905    3.6824 H   0  0  0  0  0  0  0  0  0  0  0  0
    0.8137   -0.6039    2.5978 H   0  0  0  0  0  0  0  0  0  0  0  0
   -0.2153   -2.7543   -1.3036 H   0  0  0  0  0  0  0  0  0  0  0  0
   -0.2166   -0.9659   -1.5269 H   0  0  0  0  0  0  0  0  0  0  0  0
   -2.1658   -0.4376    2.8583 H   0  0  0  0  0  0  0  0  0  0  0  0
   -1.1916    0.9122    3.5093 H   0  0  0  0  0  0  0  0  0  0  0  0
   -4.1445    1.0633    2.7143 H   0  0  0  0  0  0  0  0  0  0  0  0
   -3.5095    1.0444    4.3678 H   0  0  0  0  0  0  0  0  0  0  0  0
   -3.1756    2.4189    3.3008 H   0  0  0  0  0  0  0  0  0  0  0  0
   -5.4477   -0.3650   -0.1362 H   0  0  0  0  0  0  0  0  0  0  0  0
   -4.4014    0.3725   -1.3861 H   0  0  0  0  0  0  0  0  0  0  0  0
   -4.0574   -2.4815   -0.3423 H   0  0  0  0  0  0  0  0  0  0  0  0
   -4.9014   -2.0562   -1.8430 H   0  0  0  0  0  0  0  0  0  0  0  0
   -3.1750   -1.7190   -1.6786 H   0  0  0  0  0  0  0  0  0  0  0  0
  1  2  1  0  0  0  0
  2  3  1  0  0  0  0
  3  4  2  0  0  0  0
  4  5  2  0  0  0  0
  4  6  2  0  0  0  0
  6  7  1  0  0  0  0
  7  8  1  0  0  0  0
  4  9  1  0  0  0  0
  9 10  1  0  0  0  0
 10 11  1  0  0  0  0
 11 12  1  0  0  0  0
 12 13  2  0  0  0  0
 12 14  2  0  0  0  0
 14 15  1  0  0  0  0
 15 16  1  0  0  0  0
 12 17  2  0  0  0  0
 17 18  1  0  0  0  0
 18 19  1  0  0  0  0
  1 20  1  0  0  0  0
  1 21  1  0  0  0  0
  1 22  1  0  0  0  0
  2 23  1  0  0  0  0
  2 24  1  0  0  0  0
  7 25  1  0  0  0  0
  7 26  1  0  0  0  0
  8 27  1  0  0  0  0
  8 28  1  0  0  0  0
  8 29  1  0  0  0  0
 10 30  1  0  0  0  0
 10 31  1  0  0  0  0
 15 32  1  0  0  0  0
 15 33  1  0  0  0  0
 16 34  1  0  0  0  0
 16 35  1  0  0  0  0
 16 36  1  0  0  0  0
 18 37  1  0  0  0  0
 18 38  1  0  0  0  0
 19 39  1  0  0  0  0
 19 40  1  0  0  0  0
 19 41  1  0  0  0  0
M  END
