  26
 
 C          6.8636045503        0.5552903831       -0.0029032657
 C          5.6547190812       -0.3729379801        0.0013310433
 C          4.3404034842        0.4048526917        0.0064346883
 C          3.1257544906       -0.5202944063        0.0068288924
 C          1.8128594752        0.2595492321        0.0021707379
 C          0.6002770541       -0.6688806404        0.0009429928
 C         -0.7098589699        0.1190889810       -0.0004601298
 C         -1.8942082573       -0.8264032527       -0.0008527170
 Br        -3.6015737415        0.1628300335       -0.0011833022
 H          7.7867316102       -0.0190713132       -0.0031612641
 H          6.8528401948        1.1899476617       -0.8862225788
 H          6.8558441996        1.1943363076        0.8773168357
 H          5.6952124111       -1.0174557627        0.8823273157
 H          5.6884841392       -1.0162348897       -0.8808014249
 H          4.3056317390        1.0475119917        0.8891566768
 H          4.3015196995        1.0512187360       -0.8734522697
 H          3.1656069361       -1.1667105047       -0.8729233660
 H          3.1623608016       -1.1626298645        0.8896671754
 H          1.7780090350        0.9012622449       -0.8807608422
 H          1.7735517676        0.9051958557        0.8820692188
 H          0.6383982588       -1.3116117271       -0.8811108958
 H          0.6365276259       -1.3116886797        0.8830397238
 H         -0.7514081594        0.7607395308       -0.8832263544
 H         -0.7526929143        0.7615186316        0.8816760680
 H         -1.9177836207       -1.4497874900       -0.8928847506
 H         -1.9181388367       -1.4498803491        0.8911091209
          26
        -29.90213443
 C          6.4280710865        0.4560905575       -0.2604004388
 C          5.0545743117        0.7241070541        0.3434208459
 C          3.9850045388       -0.1907808002       -0.2488899465
 C          2.6058058849        0.0740578682        0.3501477204
 C          1.5363182832       -0.8348135091       -0.2510481016
 C          0.1589803138       -0.5666060786        0.3500724431
 C         -0.9113019834       -1.4700824781       -0.2575302168
 C         -2.2813583739       -1.2507309240        0.3515644197
 Br        -2.9948684106        0.5431752797       -0.0659755297
 H          7.1726495507        1.1190763543        0.1732933951
 H          6.7320057303       -0.5715839348       -0.0740723768
 H          6.4087790239        0.6172096883       -1.3359697213
 H          4.7764385821        1.7652577174        0.1648234803
 H          5.0979378949        0.5748830840        1.4246827301
 H          3.9433354388       -0.0414462436       -1.3303953753
 H          4.2629711960       -1.2321926608       -0.0699303476
 H          2.6465316933       -0.0805109457        1.4310040382
 H          2.3315386230        1.1173725489        0.1769905785
 H          1.8105334067       -1.8779863702       -0.0780531747
 H          1.4962270290       -0.6772307870       -1.3311530401
 H          0.1986652589       -0.7263435693        1.4304278357
 H         -0.1087912452        0.4788571526        0.1785563259
 H         -0.6449865644       -2.5161266088       -0.0859603617
 H         -0.9576712963       -1.3087765166       -1.3367971240
 H         -3.0186687366       -1.9475255908       -0.0422471443
 H         -2.2561376090       -1.3038386492        1.4385212033
