 xtb: 6.7.1 (edcfbbe)
          04092507313D

 38 37  0     0  0            999 V2000
    1.9234   -3.7730    0.3417 C   0  0  0  0  0  0  0  0  0  0  0  0
    2.7363   -2.4946    0.4331 C   0  0  0  0  0  0  0  0  0  0  0  0
    2.4451   -1.6796   -0.7187 O   0  0  0  0  0  0  0  0  0  0  0  0
    2.1503   -0.4121   -0.5679 C   0  0  0  0  0  0  0  0  0  0  0  0
    2.1267    0.1874    0.4898 O   0  0  0  0  0  0  0  0  0  0  0  0
    1.8222    0.2619   -1.8869 C   0  0  0  0  0  0  0  0  0  0  0  0
    0.4725    0.9741   -1.7631 C   0  0  0  0  0  0  0  0  0  0  0  0
    0.3309    1.6564   -2.6041 H   0  0  0  0  0  0  0  0  0  0  0  0
    0.3868    1.7524   -0.4671 C   0  0  0  0  0  0  0  0  0  0  0  0
   -0.4664    1.5150    0.3768 O   0  0  0  0  0  0  0  0  0  0  0  0
    1.2493    2.7147   -0.3937 O   0  0  0  0  0  0  0  0  0  0  0  0
    1.3177    3.4764    0.8335 C   0  0  0  0  0  0  0  0  0  0  0  0
    2.3473    4.5707    0.6414 C   0  0  0  0  0  0  0  0  0  0  0  0
   -0.9309   -0.1961   -1.8289 S   0  0  0  0  0  0  0  0  0  0  0  0
   -1.5605   -0.5433    0.1644 P   0  0  0  0  0  0  0  0  0  0  0  0
   -0.5127   -1.1063    1.7358 S   0  0  0  0  0  0  0  0  0  0  0  0
   -2.8514    0.3453    0.5077 O   0  0  0  0  0  0  0  0  0  0  0  0
   -2.9409    1.3199    1.5440 C   0  0  0  0  0  0  0  0  0  0  0  0
   -2.3404   -1.8257   -0.4415 O   0  0  0  0  0  0  0  0  0  0  0  0
   -3.1402   -2.6788    0.3758 C   0  0  0  0  0  0  0  0  0  0  0  0
    2.1213   -4.2744   -0.6008 H   0  0  0  0  0  0  0  0  0  0  0  0
    2.1894   -4.4258    1.1660 H   0  0  0  0  0  0  0  0  0  0  0  0
    0.8621   -3.5424    0.4063 H   0  0  0  0  0  0  0  0  0  0  0  0
    3.8087   -2.7018    0.4061 H   0  0  0  0  0  0  0  0  0  0  0  0
    2.4880   -1.9289    1.3362 H   0  0  0  0  0  0  0  0  0  0  0  0
    1.7888   -0.4762   -2.6856 H   0  0  0  0  0  0  0  0  0  0  0  0
    2.5968    1.0042   -2.0889 H   0  0  0  0  0  0  0  0  0  0  0  0
    0.3233    3.8796    1.0457 H   0  0  0  0  0  0  0  0  0  0  0  0
    1.5942    2.7833    1.6339 H   0  0  0  0  0  0  0  0  0  0  0  0
    2.4122    5.1603    1.5496 H   0  0  0  0  0  0  0  0  0  0  0  0
    3.3183    4.1343    0.4295 H   0  0  0  0  0  0  0  0  0  0  0  0
    2.0596    5.2137   -0.1847 H   0  0  0  0  0  0  0  0  0  0  0  0
   -2.1950    1.1201    2.3153 H   0  0  0  0  0  0  0  0  0  0  0  0
   -3.9451    1.2329    1.9539 H   0  0  0  0  0  0  0  0  0  0  0  0
   -2.7798    2.3111    1.1244 H   0  0  0  0  0  0  0  0  0  0  0  0
   -3.2790   -3.5929   -0.1964 H   0  0  0  0  0  0  0  0  0  0  0  0
   -4.0996   -2.2050    0.5819 H   0  0  0  0  0  0  0  0  0  0  0  0
   -2.6231   -2.8909    1.3149 H   0  0  0  0  0  0  0  0  0  0  0  0
  1  2  1  0  0  0  0
  2  3  1  0  0  0  0
  3  4  4  0  0  0  0
  4  5  2  0  0  0  0
  4  6  1  0  0  0  0
  6  7  1  0  0  0  0
  7  8  1  0  0  0  0
  7  9  1  0  0  0  0
  9 10  2  0  0  0  0
  9 11  4  0  0  0  0
 11 12  1  0  0  0  0
 12 13  1  0  0  0  0
  7 14  1  0  0  0  0
 14 15  1  0  0  0  0
 15 16  2  0  0  0  0
 15 17  1  0  0  0  0
 17 18  1  0  0  0  0
 15 19  1  0  0  0  0
 19 20  1  0  0  0  0
  1 21  1  0  0  0  0
  1 22  1  0  0  0  0
  1 23  1  0  0  0  0
  2 24  1  0  0  0  0
  2 25  1  0  0  0  0
  6 26  1  0  0  0  0
  6 27  1  0  0  0  0
 12 28  1  0  0  0  0
 12 29  1  0  0  0  0
 13 30  1  0  0  0  0
 13 31  1  0  0  0  0
 13 32  1  0  0  0  0
 18 33  1  0  0  0  0
 18 34  1  0  0  0  0
 18 35  1  0  0  0  0
 20 36  1  0  0  0  0
 20 37  1  0  0  0  0
 20 38  1  0  0  0  0
M  END
