 xtb: 6.7.1 (edcfbbe)
          04092513573D

 41 40  0     0  0            999 V2000
    4.4061   -2.2898    0.9929 C   0  0  0  0  0  0  0  0  0  0  0  0
    4.6986   -0.8523    0.6124 C   0  0  0  0  0  0  0  0  0  0  0  0
    3.5577    0.0074    0.7891 O   0  0  0  0  0  0  0  0  0  0  0  0
    2.2960    0.0034   -0.1770 P   0  0  0  0  0  0  0  0  0  0  0  0
    2.6819   -0.3383   -2.0716 S   0  0  0  0  0  0  0  0  0  0  0  0
    1.6348    1.4081    0.1639 O   0  0  0  0  0  0  0  0  0  0  0  0
    1.8295    2.5780   -0.6544 C   0  0  0  0  0  0  0  0  0  0  0  0
    3.2121    3.1709   -0.4800 C   0  0  0  0  0  0  0  0  0  0  0  0
    0.9191   -1.2730    0.7836 S   0  0  0  0  0  0  0  0  0  0  0  0
   -0.2481   -1.4619   -0.5970 C   0  0  0  0  0  0  0  0  0  0  0  0
   -1.0292    0.0874   -1.1483 S   0  0  0  0  0  0  0  0  0  0  0  0
   -2.6845    0.1467    0.1946 P   0  0  0  0  0  0  0  0  0  0  0  0
   -3.8220    1.7245   -0.0240 S   0  0  0  0  0  0  0  0  0  0  0  0
   -2.0479   -0.0718    1.6299 O   0  0  0  0  0  0  0  0  0  0  0  0
   -1.3383    1.0005    2.2802 C   0  0  0  0  0  0  0  0  0  0  0  0
   -0.9121    0.5067    3.6470 C   0  0  0  0  0  0  0  0  0  0  0  0
   -3.3907   -1.2682    0.1005 O   0  0  0  0  0  0  0  0  0  0  0  0
   -4.5399   -1.4879   -0.7392 C   0  0  0  0  0  0  0  0  0  0  0  0
   -4.1511   -1.6182   -2.1987 C   0  0  0  0  0  0  0  0  0  0  0  0
    5.3281   -2.8619    0.9489 H   0  0  0  0  0  0  0  0  0  0  0  0
    3.9992   -2.3416    1.9993 H   0  0  0  0  0  0  0  0  0  0  0  0
    3.6880   -2.7247    0.2996 H   0  0  0  0  0  0  0  0  0  0  0  0
    5.0218   -0.7896   -0.4318 H   0  0  0  0  0  0  0  0  0  0  0  0
    5.4579   -0.4147    1.2624 H   0  0  0  0  0  0  0  0  0  0  0  0
    1.6527    2.3023   -1.6994 H   0  0  0  0  0  0  0  0  0  0  0  0
    1.0499    3.2662   -0.3233 H   0  0  0  0  0  0  0  0  0  0  0  0
    3.4056    3.3779    0.5691 H   0  0  0  0  0  0  0  0  0  0  0  0
    3.9654    2.4760   -0.8490 H   0  0  0  0  0  0  0  0  0  0  0  0
    3.2763    4.0941   -1.0481 H   0  0  0  0  0  0  0  0  0  0  0  0
   -1.0144   -2.1555   -0.2590 H   0  0  0  0  0  0  0  0  0  0  0  0
    0.2864   -1.8441   -1.4656 H   0  0  0  0  0  0  0  0  0  0  0  0
   -0.4688    1.2732    1.6718 H   0  0  0  0  0  0  0  0  0  0  0  0
   -2.0043    1.8670    2.3490 H   0  0  0  0  0  0  0  0  0  0  0  0
   -1.7850    0.2387    4.2348 H   0  0  0  0  0  0  0  0  0  0  0  0
   -0.2753   -0.3673    3.5386 H   0  0  0  0  0  0  0  0  0  0  0  0
   -0.3624    1.2933    4.1533 H   0  0  0  0  0  0  0  0  0  0  0  0
   -4.9756   -2.4113   -0.3544 H   0  0  0  0  0  0  0  0  0  0  0  0
   -5.2434   -0.6608   -0.5992 H   0  0  0  0  0  0  0  0  0  0  0  0
   -3.3910   -2.3853   -2.3222 H   0  0  0  0  0  0  0  0  0  0  0  0
   -5.0270   -1.8877   -2.7803 H   0  0  0  0  0  0  0  0  0  0  0  0
   -3.7603   -0.6704   -2.5673 H   0  0  0  0  0  0  0  0  0  0  0  0
  1  2  1  0  0  0  0
  2  3  1  0  0  0  0
  3  4  2  0  0  0  0
  4  5  2  0  0  0  0
  4  6  2  0  0  0  0
  6  7  1  0  0  0  0
  7  8  1  0  0  0  0
  4  9  1  0  0  0  0
  9 10  1  0  0  0  0
 10 11  1  0  0  0  0
 11 12  1  0  0  0  0
 12 13  2  0  0  0  0
 12 14  2  0  0  0  0
 14 15  1  0  0  0  0
 15 16  1  0  0  0  0
 12 17  2  0  0  0  0
 17 18  1  0  0  0  0
 18 19  1  0  0  0  0
  1 20  1  0  0  0  0
  1 21  1  0  0  0  0
  1 22  1  0  0  0  0
  2 23  1  0  0  0  0
  2 24  1  0  0  0  0
  7 25  1  0  0  0  0
  7 26  1  0  0  0  0
  8 27  1  0  0  0  0
  8 28  1  0  0  0  0
  8 29  1  0  0  0  0
 10 30  1  0  0  0  0
 10 31  1  0  0  0  0
 15 32  1  0  0  0  0
 15 33  1  0  0  0  0
 16 34  1  0  0  0  0
 16 35  1  0  0  0  0
 16 36  1  0  0  0  0
 18 37  1  0  0  0  0
 18 38  1  0  0  0  0
 19 39  1  0  0  0  0
 19 40  1  0  0  0  0
 19 41  1  0  0  0  0
M  END
