41
 xtb: 6.7.1 (edcfbbe)
C            4.95749606821185       -1.87925144652192       -0.67580972588008
C            4.91323738900222       -0.41430216592283       -0.31985221073653
O            3.68603073135270       -0.05774223788215        0.40639234394281
P            2.27061264663199        0.18257464194387       -0.32624330254325
S            2.31330494390380        0.77608517634433       -2.18097277244748
O            1.53284392347155        1.14747638094803        0.72561798414121
C            1.58407481912277        2.61106732417948        0.59165867675772
C            2.93906169533395        3.16142930220308        0.96435077621015
S            1.32640645057956       -1.67282227613126        0.05497793052280
C           -0.16009916475432       -1.56635568341901       -1.04370868658186
S           -1.74445871947373       -1.91278209382168       -0.19745312968561
P           -2.58325531268603        0.02257014860131        0.16966163440183
S           -1.83419169404739        1.46156151629756       -0.89950367285607
O           -2.55233155209649        0.19958632602512        1.76975235240345
C           -1.26156604007463        0.40504484768322        2.43706238774304
C           -1.49682649730171        0.27766613103977        3.91895575262339
O           -4.15655982713091       -0.27842832664003        0.06771779172322
C           -4.93104896491379        0.00252428844080       -1.15154386201719
C           -4.69703240516158       -1.02332033246195       -2.23161445362483
H            4.82897698820032       -2.50384405962749        0.21291408286316
H            4.19022314369398       -2.13971511996684       -1.41029209781694
H            5.93667745765325       -2.10011381024318       -1.11342289406880
H            4.98545579173416        0.22505687240601       -1.20452769760033
H            5.70802315391347       -0.14701686945854        0.37936234202662
H            1.30059569342530        2.87142242605677       -0.43234399372112
H            0.80539823874247        2.95624373989028        1.27504699340646
H            2.88918459649434        4.25504959050151        0.94385922447158
H            3.22607501490834        2.84782808676693        1.97203811629140
H            3.71241929205463        2.84348509547000        0.25840894613308
H           -0.05510069472815       -2.33549586568068       -1.81196165021790
H           -0.20473605244031       -0.58162008075704       -1.52228884691388
H           -0.55486267308568       -0.35105199838388        2.07678111221682
H           -0.89527071258915        1.39904335544756        2.16459380421644
H           -1.86677469350551       -0.71956180996650        4.17148917797669
H           -0.54872877165403        0.43827256152133        4.44094504180220
H           -2.21416615628604        1.02534959492507        4.26725273213507
H           -5.96403131781915       -0.01412121861089       -0.79928408575879
H           -4.68489276334695        1.01421718897754       -1.48695339790036
H           -3.67553045211176       -0.97884083273966       -2.61906892632233
H           -4.89708100945070       -2.03430330320899       -1.86593279877116
H           -5.38401738062881       -0.81272134607423       -3.05764434220857
