 xtb: 6.7.1 (edcfbbe)
          04092505203D

 41 40  0     0  0            999 V2000
    2.8138    2.6322   -0.4139 C   0  0  0  0  0  0  0  0  0  0  0  0
    2.3495    1.5079   -1.3178 C   0  0  0  0  0  0  0  0  0  0  0  0
    1.4810    0.5866   -0.6258 O   0  0  0  0  0  0  0  0  0  0  0  0
    1.9593   -0.5305    0.3888 P   0  0  0  0  0  0  0  0  0  0  0  0
    2.6453    0.0314    2.1426 S   0  0  0  0  0  0  0  0  0  0  0  0
    3.0033   -1.3418   -0.4916 O   0  0  0  0  0  0  0  0  0  0  0  0
    3.9366   -2.2683    0.0929 C   0  0  0  0  0  0  0  0  0  0  0  0
    3.2464   -3.5147    0.6069 C   0  0  0  0  0  0  0  0  0  0  0  0
    0.2094   -1.7065    0.4349 S   0  0  0  0  0  0  0  0  0  0  0  0
   -0.6155   -0.7881    1.7618 C   0  0  0  0  0  0  0  0  0  0  0  0
   -0.9795    0.9357    1.3246 S   0  0  0  0  0  0  0  0  0  0  0  0
   -2.0926    0.6280   -0.4558 P   0  0  0  0  0  0  0  0  0  0  0  0
   -1.2555    0.3143   -2.2056 S   0  0  0  0  0  0  0  0  0  0  0  0
   -3.0503    1.9020   -0.4672 O   0  0  0  0  0  0  0  0  0  0  0  0
   -2.6925    3.1146   -1.1491 C   0  0  0  0  0  0  0  0  0  0  0  0
   -1.4797    3.7723   -0.5224 C   0  0  0  0  0  0  0  0  0  0  0  0
   -3.0724   -0.5002    0.0591 O   0  0  0  0  0  0  0  0  0  0  0  0
   -3.6474   -1.5253   -0.7824 C   0  0  0  0  0  0  0  0  0  0  0  0
   -3.3114   -2.8886   -0.2115 C   0  0  0  0  0  0  0  0  0  0  0  0
    3.4479    2.2438    0.3808 H   0  0  0  0  0  0  0  0  0  0  0  0
    3.3777    3.3513   -0.9994 H   0  0  0  0  0  0  0  0  0  0  0  0
    1.9595    3.1287    0.0406 H   0  0  0  0  0  0  0  0  0  0  0  0
    3.1947    0.9505   -1.7281 H   0  0  0  0  0  0  0  0  0  0  0  0
    1.7249    1.8767   -2.1349 H   0  0  0  0  0  0  0  0  0  0  0  0
    4.6271   -2.4937   -0.7208 H   0  0  0  0  0  0  0  0  0  0  0  0
    4.4661   -1.7586    0.9043 H   0  0  0  0  0  0  0  0  0  0  0  0
    2.6075   -3.2633    1.4526 H   0  0  0  0  0  0  0  0  0  0  0  0
    2.6341   -3.9569   -0.1751 H   0  0  0  0  0  0  0  0  0  0  0  0
    3.9938   -4.2317    0.9305 H   0  0  0  0  0  0  0  0  0  0  0  0
    0.0404   -0.7388    2.6318 H   0  0  0  0  0  0  0  0  0  0  0  0
   -1.5389   -1.3148    1.9883 H   0  0  0  0  0  0  0  0  0  0  0  0
   -2.4994    2.8749   -2.2001 H   0  0  0  0  0  0  0  0  0  0  0  0
   -3.5826    3.7391   -1.0662 H   0  0  0  0  0  0  0  0  0  0  0  0
   -0.6156    3.1150   -0.6289 H   0  0  0  0  0  0  0  0  0  0  0  0
   -1.2733    4.7126   -1.0232 H   0  0  0  0  0  0  0  0  0  0  0  0
   -1.6496    3.9518    0.5366 H   0  0  0  0  0  0  0  0  0  0  0  0
   -4.7239   -1.3457   -0.7877 H   0  0  0  0  0  0  0  0  0  0  0  0
   -3.2526   -1.4143   -1.7979 H   0  0  0  0  0  0  0  0  0  0  0  0
   -3.7695   -3.6532   -0.8303 H   0  0  0  0  0  0  0  0  0  0  0  0
   -2.2329   -3.0368   -0.2019 H   0  0  0  0  0  0  0  0  0  0  0  0
   -3.6904   -2.9748    0.8029 H   0  0  0  0  0  0  0  0  0  0  0  0
  1  2  1  0  0  0  0
  2  3  1  0  0  0  0
  3  4  2  0  0  0  0
  4  5  2  0  0  0  0
  4  6  2  0  0  0  0
  6  7  1  0  0  0  0
  7  8  1  0  0  0  0
  4  9  1  0  0  0  0
  9 10  1  0  0  0  0
 10 11  1  0  0  0  0
 11 12  1  0  0  0  0
 12 13  2  0  0  0  0
 12 14  2  0  0  0  0
 14 15  1  0  0  0  0
 15 16  1  0  0  0  0
 12 17  2  0  0  0  0
 17 18  1  0  0  0  0
 18 19  1  0  0  0  0
  1 20  1  0  0  0  0
  1 21  1  0  0  0  0
  1 22  1  0  0  0  0
  2 23  1  0  0  0  0
  2 24  1  0  0  0  0
  7 25  1  0  0  0  0
  7 26  1  0  0  0  0
  8 27  1  0  0  0  0
  8 28  1  0  0  0  0
  8 29  1  0  0  0  0
 10 30  1  0  0  0  0
 10 31  1  0  0  0  0
 15 32  1  0  0  0  0
 15 33  1  0  0  0  0
 16 34  1  0  0  0  0
 16 35  1  0  0  0  0
 16 36  1  0  0  0  0
 18 37  1  0  0  0  0
 18 38  1  0  0  0  0
 19 39  1  0  0  0  0
 19 40  1  0  0  0  0
 19 41  1  0  0  0  0
M  END
