 xtb: 6.7.1 (edcfbbe)
          04092505213D

 41 40  0     0  0            999 V2000
    1.1319   -0.0071    2.9256 C   0  0  0  0  0  0  0  0  0  0  0  0
    2.6282   -0.0588    2.6946 C   0  0  0  0  0  0  0  0  0  0  0  0
    3.0007    0.5297    1.4364 O   0  0  0  0  0  0  0  0  0  0  0  0
    2.6647   -0.1563    0.0414 P   0  0  0  0  0  0  0  0  0  0  0  0
    2.8227   -2.1148    0.0244 S   0  0  0  0  0  0  0  0  0  0  0  0
    3.6195    0.6308   -0.9455 O   0  0  0  0  0  0  0  0  0  0  0  0
    4.9757    0.2117   -1.2058 C   0  0  0  0  0  0  0  0  0  0  0  0
    5.8635    0.3499    0.0134 C   0  0  0  0  0  0  0  0  0  0  0  0
    0.8360    0.6936   -0.6164 S   0  0  0  0  0  0  0  0  0  0  0  0
   -0.1022   -0.8282   -0.9525 C   0  0  0  0  0  0  0  0  0  0  0  0
   -1.4085   -1.1294    0.2577 S   0  0  0  0  0  0  0  0  0  0  0  0
   -2.7720    0.3061   -0.5372 P   0  0  0  0  0  0  0  0  0  0  0  0
   -2.9078    0.3579   -2.4868 S   0  0  0  0  0  0  0  0  0  0  0  0
   -2.3117    1.6921    0.0516 O   0  0  0  0  0  0  0  0  0  0  0  0
   -2.1832    1.9476    1.4745 C   0  0  0  0  0  0  0  0  0  0  0  0
   -1.1958    3.0823    1.6517 C   0  0  0  0  0  0  0  0  0  0  0  0
   -4.1203    0.0371    0.2613 O   0  0  0  0  0  0  0  0  0  0  0  0
   -5.1104   -0.9155   -0.1692 C   0  0  0  0  0  0  0  0  0  0  0  0
   -4.5890   -2.3375   -0.1543 C   0  0  0  0  0  0  0  0  0  0  0  0
    0.6195   -0.6472    2.2071 H   0  0  0  0  0  0  0  0  0  0  0  0
    0.9101   -0.3626    3.9267 H   0  0  0  0  0  0  0  0  0  0  0  0
    0.7706    1.0121    2.8163 H   0  0  0  0  0  0  0  0  0  0  0  0
    2.9844   -1.0939    2.7123 H   0  0  0  0  0  0  0  0  0  0  0  0
    3.1702    0.5343    3.4324 H   0  0  0  0  0  0  0  0  0  0  0  0
    4.9548   -0.8262   -1.5535 H   0  0  0  0  0  0  0  0  0  0  0  0
    5.2969    0.8668   -2.0167 H   0  0  0  0  0  0  0  0  0  0  0  0
    5.5560   -0.3587    0.7810 H   0  0  0  0  0  0  0  0  0  0  0  0
    6.8914    0.1416   -0.2667 H   0  0  0  0  0  0  0  0  0  0  0  0
    5.7940    1.3573    0.4154 H   0  0  0  0  0  0  0  0  0  0  0  0
    0.5760   -1.6834   -0.9148 H   0  0  0  0  0  0  0  0  0  0  0  0
   -0.5601   -0.7263   -1.9370 H   0  0  0  0  0  0  0  0  0  0  0  0
   -3.1729    2.2100    1.8525 H   0  0  0  0  0  0  0  0  0  0  0  0
   -1.8405    1.0316    1.9651 H   0  0  0  0  0  0  0  0  0  0  0  0
   -0.2321    2.8090    1.2281 H   0  0  0  0  0  0  0  0  0  0  0  0
   -1.5547    3.9703    1.1397 H   0  0  0  0  0  0  0  0  0  0  0  0
   -1.0840    3.2972    2.7097 H   0  0  0  0  0  0  0  0  0  0  0  0
   -5.9261   -0.7774    0.5419 H   0  0  0  0  0  0  0  0  0  0  0  0
   -5.4406   -0.6374   -1.1746 H   0  0  0  0  0  0  0  0  0  0  0  0
   -5.4071   -3.0206   -0.3588 H   0  0  0  0  0  0  0  0  0  0  0  0
   -3.8267   -2.4632   -0.9219 H   0  0  0  0  0  0  0  0  0  0  0  0
   -4.1543   -2.5726    0.8140 H   0  0  0  0  0  0  0  0  0  0  0  0
  1  2  1  0  0  0  0
  2  3  1  0  0  0  0
  3  4  2  0  0  0  0
  4  5  2  0  0  0  0
  4  6  2  0  0  0  0
  6  7  1  0  0  0  0
  7  8  1  0  0  0  0
  4  9  1  0  0  0  0
  9 10  1  0  0  0  0
 10 11  1  0  0  0  0
 11 12  1  0  0  0  0
 12 13  2  0  0  0  0
 12 14  2  0  0  0  0
 14 15  1  0  0  0  0
 15 16  1  0  0  0  0
 12 17  2  0  0  0  0
 17 18  1  0  0  0  0
 18 19  1  0  0  0  0
  1 20  1  0  0  0  0
  1 21  1  0  0  0  0
  1 22  1  0  0  0  0
  2 23  1  0  0  0  0
  2 24  1  0  0  0  0
  7 25  1  0  0  0  0
  7 26  1  0  0  0  0
  8 27  1  0  0  0  0
  8 28  1  0  0  0  0
  8 29  1  0  0  0  0
 10 30  1  0  0  0  0
 10 31  1  0  0  0  0
 15 32  1  0  0  0  0
 15 33  1  0  0  0  0
 16 34  1  0  0  0  0
 16 35  1  0  0  0  0
 16 36  1  0  0  0  0
 18 37  1  0  0  0  0
 18 38  1  0  0  0  0
 19 39  1  0  0  0  0
 19 40  1  0  0  0  0
 19 41  1  0  0  0  0
M  END
