41
 xtb: 6.7.1 (edcfbbe)
C            5.06996580439963       -2.03951082727666       -0.47624914730517
C            4.15004440546604       -2.01194540415386        0.71831704379067
O            3.52394563759877       -0.69773776278732        0.93898371705236
P            2.40377924765820       -0.03357601241616       -0.00282662543626
S            2.89306552112647        0.61440329288547       -1.77394620028304
O            1.87706906035257        1.07585535867501        1.03350498209701
C            1.83249566471356        2.51216544127867        0.74035433660522
C            3.11560659573094        3.17433028356635        1.17560219496487
S            0.89404531290226       -1.53179682891938        0.01873381391261
C           -0.12257496262804       -0.98470568874837       -1.40560694584655
S           -0.90143732700118        0.68403638884447       -1.27311652033014
P           -2.67119504817675        0.26647053713154       -0.21193456757051
S           -3.66661614052512        1.91497051587932        0.07353254976541
O           -2.25643429816015       -0.56961357637157        1.10310771580698
C           -1.59742838065437        0.11190153478863        2.22495405912612
C           -1.30882533072812       -0.92965115669184        3.27398075355683
O           -3.35241664350932       -0.89334620611295       -1.08466547046547
C           -4.78656359453163       -1.21583802690147       -0.96801467572181
C           -5.10275058329754       -1.94727367896865        0.31248418985406
H            4.51975582458800       -1.96914119603096       -1.41704237692033
H            5.80165388202722       -1.22796941836853       -0.42776800966387
H            5.61042171611556       -2.99181336478597       -0.46441932732483
H            4.69926362041585       -2.17692419533411        1.64717693107560
H            3.35945408791932       -2.76445934704872        0.64142461227000
H            1.64026458134783        2.65283117495604       -0.32678537165521
H            0.97151249413723        2.87334286322668        1.30769270566425
H            3.96689406681477        2.79549296325706        0.60181941036996
H            3.03646376997170        4.25268359989918        1.00251989866259
H            3.30058914677705        3.00777214602285        2.24059733614622
H           -0.89001180680041       -1.75075665186318       -1.54452020346622
H            0.50645755257013       -0.94171311527166       -2.29862893449327
H           -0.67897243132154        0.58035165873914        1.85405257765208
H           -2.27438348626669        0.88708130794755        2.59742394927754
H           -0.64077304803029       -1.70328241494454        2.88551672917420
H           -0.82132032681558       -0.44702905324105        4.12652446547233
H           -2.23358452071228       -1.39729049236300        3.62408331154369
H           -5.35355569989874       -0.28462317945075       -1.06234816065597
H           -4.97407235266615       -1.83818538788178       -1.84473314073277
H           -6.14921827636136       -2.26783695694608        0.27641067239832
H           -4.47377425759597       -2.83531661741523        0.42209036262699
H           -4.97396531949190       -1.30627980655356        1.18917487268967
