 xtb: 6.7.1 (edcfbbe)
          04092505203D

 41 40  0     0  0            999 V2000
    3.4450   -0.3422   -2.6126 C   0  0  0  0  0  0  0  0  0  0  0  0
    1.9654   -0.1042   -2.4065 C   0  0  0  0  0  0  0  0  0  0  0  0
    1.4689   -0.7725   -1.2264 O   0  0  0  0  0  0  0  0  0  0  0  0
    1.9649   -0.3752    0.2235 P   0  0  0  0  0  0  0  0  0  0  0  0
    2.4406    1.4987    0.5667 S   0  0  0  0  0  0  0  0  0  0  0  0
    3.1706   -1.3962    0.4027 O   0  0  0  0  0  0  0  0  0  0  0  0
    3.9983   -1.3790    1.5815 C   0  0  0  0  0  0  0  0  0  0  0  0
    5.2503   -2.1792    1.2836 C   0  0  0  0  0  0  0  0  0  0  0  0
    0.4859   -1.2232    1.4709 S   0  0  0  0  0  0  0  0  0  0  0  0
   -0.2864    0.2858    2.1525 C   0  0  0  0  0  0  0  0  0  0  0  0
   -2.0838    0.3234    1.9479 S   0  0  0  0  0  0  0  0  0  0  0  0
   -2.1644    0.3726   -0.1535 P   0  0  0  0  0  0  0  0  0  0  0  0
   -0.8364    1.4800   -1.0923 S   0  0  0  0  0  0  0  0  0  0  0  0
   -3.6738    0.7407   -0.4795 O   0  0  0  0  0  0  0  0  0  0  0  0
   -4.1297    2.0961   -0.6309 C   0  0  0  0  0  0  0  0  0  0  0  0
   -4.0900    2.8618    0.6757 C   0  0  0  0  0  0  0  0  0  0  0  0
   -2.1397   -1.1826   -0.4451 O   0  0  0  0  0  0  0  0  0  0  0  0
   -1.8253   -1.7573   -1.7288 C   0  0  0  0  0  0  0  0  0  0  0  0
   -2.7920   -1.3146   -2.8063 C   0  0  0  0  0  0  0  0  0  0  0  0
    3.7492    0.0947   -3.5587 H   0  0  0  0  0  0  0  0  0  0  0  0
    4.0098    0.1274   -1.8080 H   0  0  0  0  0  0  0  0  0  0  0  0
    3.6556   -1.4084   -2.6168 H   0  0  0  0  0  0  0  0  0  0  0  0
    1.3691   -0.5272   -3.2165 H   0  0  0  0  0  0  0  0  0  0  0  0
    1.7448    0.9646   -2.3136 H   0  0  0  0  0  0  0  0  0  0  0  0
    4.2336   -0.3376    1.8262 H   0  0  0  0  0  0  0  0  0  0  0  0
    3.4294   -1.8194    2.4052 H   0  0  0  0  0  0  0  0  0  0  0  0
    5.8029   -1.7215    0.4681 H   0  0  0  0  0  0  0  0  0  0  0  0
    5.8753   -2.2046    2.1700 H   0  0  0  0  0  0  0  0  0  0  0  0
    4.9818   -3.1932    1.0019 H   0  0  0  0  0  0  0  0  0  0  0  0
    0.1687    1.1545    1.6681 H   0  0  0  0  0  0  0  0  0  0  0  0
   -0.1117    0.3027    3.2251 H   0  0  0  0  0  0  0  0  0  0  0  0
   -3.5060    2.5887   -1.3840 H   0  0  0  0  0  0  0  0  0  0  0  0
   -5.1489    1.9882   -1.0044 H   0  0  0  0  0  0  0  0  0  0  0  0
   -4.6125    2.3098    1.4529 H   0  0  0  0  0  0  0  0  0  0  0  0
   -3.0576    3.0133    0.9885 H   0  0  0  0  0  0  0  0  0  0  0  0
   -4.5613    3.8299    0.5394 H   0  0  0  0  0  0  0  0  0  0  0  0
   -0.7976   -1.4818   -1.9850 H   0  0  0  0  0  0  0  0  0  0  0  0
   -1.8813   -2.8317   -1.5472 H   0  0  0  0  0  0  0  0  0  0  0  0
   -2.5733   -1.8456   -3.7276 H   0  0  0  0  0  0  0  0  0  0  0  0
   -3.8140   -1.5230   -2.5004 H   0  0  0  0  0  0  0  0  0  0  0  0
   -2.6876   -0.2438   -2.9805 H   0  0  0  0  0  0  0  0  0  0  0  0
  1  2  1  0  0  0  0
  2  3  1  0  0  0  0
  3  4  2  0  0  0  0
  4  5  2  0  0  0  0
  4  6  2  0  0  0  0
  6  7  1  0  0  0  0
  7  8  1  0  0  0  0
  4  9  1  0  0  0  0
  9 10  1  0  0  0  0
 10 11  1  0  0  0  0
 11 12  1  0  0  0  0
 12 13  2  0  0  0  0
 12 14  2  0  0  0  0
 14 15  1  0  0  0  0
 15 16  1  0  0  0  0
 12 17  2  0  0  0  0
 17 18  1  0  0  0  0
 18 19  1  0  0  0  0
  1 20  1  0  0  0  0
  1 21  1  0  0  0  0
  1 22  1  0  0  0  0
  2 23  1  0  0  0  0
  2 24  1  0  0  0  0
  7 25  1  0  0  0  0
  7 26  1  0  0  0  0
  8 27  1  0  0  0  0
  8 28  1  0  0  0  0
  8 29  1  0  0  0  0
 10 30  1  0  0  0  0
 10 31  1  0  0  0  0
 15 32  1  0  0  0  0
 15 33  1  0  0  0  0
 16 34  1  0  0  0  0
 16 35  1  0  0  0  0
 16 36  1  0  0  0  0
 18 37  1  0  0  0  0
 18 38  1  0  0  0  0
 19 39  1  0  0  0  0
 19 40  1  0  0  0  0
 19 41  1  0  0  0  0
M  END
