 xtb: 6.7.1 (edcfbbe)
          04032520003D

  6  5  0     0  0            999 V2000
    0.0001    1.8139    0.0028 C   0  0  0  0  0  0  0  0  0  0  0  0
    0.0000    0.4970    0.0008 C   0  0  0  0  0  0  0  0  0  0  0  0
    1.4415   -0.4587   -0.0009 Cl  0  0  0  0  0  0  0  0  0  0  0  0
   -1.4415   -0.4586   -0.0012 Cl  0  0  0  0  0  0  0  0  0  0  0  0
   -0.9235    2.3622    0.0039 H   0  0  0  0  0  0  0  0  0  0  0  0
    0.9236    2.3622    0.0040 H   0  0  0  0  0  0  0  0  0  0  0  0
  1  2  2  0  0  0  0
  2  3  1  0  0  0  0
  2  4  1  0  0  0  0
  1  5  1  0  0  0  0
  1  6  1  0  0  0  0
M  END
