 xtb: 6.7.1 (edcfbbe)
          04092505203D

 41 40  0     0  0            999 V2000
    0.4328   -1.6638    2.7810 C   0  0  0  0  0  0  0  0  0  0  0  0
    1.5642   -0.6619    2.6640 C   0  0  0  0  0  0  0  0  0  0  0  0
    1.3829    0.1693    1.4936 O   0  0  0  0  0  0  0  0  0  0  0  0
    2.2424    0.0167    0.1772 P   0  0  0  0  0  0  0  0  0  0  0  0
    2.9617   -1.7682   -0.2088 S   0  0  0  0  0  0  0  0  0  0  0  0
    3.3175    1.1662    0.4135 O   0  0  0  0  0  0  0  0  0  0  0  0
    4.3766    1.4401   -0.5275 C   0  0  0  0  0  0  0  0  0  0  0  0
    5.6521    0.7248   -0.1262 C   0  0  0  0  0  0  0  0  0  0  0  0
    0.9846    0.8723   -1.2874 S   0  0  0  0  0  0  0  0  0  0  0  0
    0.2298   -0.6673   -1.8848 C   0  0  0  0  0  0  0  0  0  0  0  0
   -0.7285   -1.5260   -0.6121 S   0  0  0  0  0  0  0  0  0  0  0  0
   -2.1121    0.0339   -0.2346 P   0  0  0  0  0  0  0  0  0  0  0  0
   -2.6715    1.0649   -1.8102 S   0  0  0  0  0  0  0  0  0  0  0  0
   -1.4187    0.8581    0.9229 O   0  0  0  0  0  0  0  0  0  0  0  0
   -1.4978    2.2915    1.0146 C   0  0  0  0  0  0  0  0  0  0  0  0
   -2.8331    2.7203    1.5852 C   0  0  0  0  0  0  0  0  0  0  0  0
   -3.2337   -0.7076    0.6086 O   0  0  0  0  0  0  0  0  0  0  0  0
   -4.0814   -1.7417    0.0702 C   0  0  0  0  0  0  0  0  0  0  0  0
   -5.3164   -1.1585   -0.5891 C   0  0  0  0  0  0  0  0  0  0  0  0
   -0.5249   -1.1522    2.7185 H   0  0  0  0  0  0  0  0  0  0  0  0
    0.4905   -2.3942    1.9766 H   0  0  0  0  0  0  0  0  0  0  0  0
    0.5074   -2.1771    3.7342 H   0  0  0  0  0  0  0  0  0  0  0  0
    2.5304   -1.1703    2.5989 H   0  0  0  0  0  0  0  0  0  0  0  0
    1.5703    0.0352    3.5034 H   0  0  0  0  0  0  0  0  0  0  0  0
    4.0565    1.1406   -1.5295 H   0  0  0  0  0  0  0  0  0  0  0  0
    4.5002    2.5241   -0.4951 H   0  0  0  0  0  0  0  0  0  0  0  0
    6.4470    1.0006   -0.8115 H   0  0  0  0  0  0  0  0  0  0  0  0
    5.9343    1.0053    0.8847 H   0  0  0  0  0  0  0  0  0  0  0  0
    5.5082   -0.3527   -0.1648 H   0  0  0  0  0  0  0  0  0  0  0  0
    1.0083   -1.3595   -2.2036 H   0  0  0  0  0  0  0  0  0  0  0  0
   -0.4213   -0.3856   -2.7117 H   0  0  0  0  0  0  0  0  0  0  0  0
   -0.6639    2.5651    1.6630 H   0  0  0  0  0  0  0  0  0  0  0  0
   -1.3436    2.7202    0.0183 H   0  0  0  0  0  0  0  0  0  0  0  0
   -2.8488    3.7995    1.6998 H   0  0  0  0  0  0  0  0  0  0  0  0
   -3.6309    2.4223    0.9058 H   0  0  0  0  0  0  0  0  0  0  0  0
   -2.9991    2.2485    2.5498 H   0  0  0  0  0  0  0  0  0  0  0  0
   -3.5052   -2.3468   -0.6359 H   0  0  0  0  0  0  0  0  0  0  0  0
   -4.3447   -2.3493    0.9380 H   0  0  0  0  0  0  0  0  0  0  0  0
   -5.9537   -1.9673   -0.9316 H   0  0  0  0  0  0  0  0  0  0  0  0
   -5.8649   -0.5450    0.1204 H   0  0  0  0  0  0  0  0  0  0  0  0
   -5.0372   -0.5423   -1.4408 H   0  0  0  0  0  0  0  0  0  0  0  0
  1  2  1  0  0  0  0
  2  3  1  0  0  0  0
  3  4  2  0  0  0  0
  4  5  2  0  0  0  0
  4  6  2  0  0  0  0
  6  7  1  0  0  0  0
  7  8  1  0  0  0  0
  4  9  1  0  0  0  0
  9 10  1  0  0  0  0
 10 11  1  0  0  0  0
 11 12  1  0  0  0  0
 12 13  2  0  0  0  0
 12 14  2  0  0  0  0
 14 15  1  0  0  0  0
 15 16  1  0  0  0  0
 12 17  2  0  0  0  0
 17 18  1  0  0  0  0
 18 19  1  0  0  0  0
  1 20  1  0  0  0  0
  1 21  1  0  0  0  0
  1 22  1  0  0  0  0
  2 23  1  0  0  0  0
  2 24  1  0  0  0  0
  7 25  1  0  0  0  0
  7 26  1  0  0  0  0
  8 27  1  0  0  0  0
  8 28  1  0  0  0  0
  8 29  1  0  0  0  0
 10 30  1  0  0  0  0
 10 31  1  0  0  0  0
 15 32  1  0  0  0  0
 15 33  1  0  0  0  0
 16 34  1  0  0  0  0
 16 35  1  0  0  0  0
 16 36  1  0  0  0  0
 18 37  1  0  0  0  0
 18 38  1  0  0  0  0
 19 39  1  0  0  0  0
 19 40  1  0  0  0  0
 19 41  1  0  0  0  0
M  END
