 xtb: 6.7.1 (edcfbbe)
          04092505203D

 41 40  0     0  0            999 V2000
    4.1188   -1.8207   -1.1748 C   0  0  0  0  0  0  0  0  0  0  0  0
    4.6066   -0.4170   -0.8792 C   0  0  0  0  0  0  0  0  0  0  0  0
    3.7438    0.2871    0.0293 O   0  0  0  0  0  0  0  0  0  0  0  0
    2.2349    0.6642   -0.3267 P   0  0  0  0  0  0  0  0  0  0  0  0
    1.9700    1.2010   -2.1931 S   0  0  0  0  0  0  0  0  0  0  0  0
    1.9602    1.8243    0.7049 O   0  0  0  0  0  0  0  0  0  0  0  0
    2.5640    1.9364    2.0182 C   0  0  0  0  0  0  0  0  0  0  0  0
    2.2397    0.7600    2.9144 C   0  0  0  0  0  0  0  0  0  0  0  0
    1.1089   -1.0188    0.3298 S   0  0  0  0  0  0  0  0  0  0  0  0
    0.0978   -1.3513   -1.1501 C   0  0  0  0  0  0  0  0  0  0  0  0
   -1.6165   -1.7470   -0.7580 S   0  0  0  0  0  0  0  0  0  0  0  0
   -2.3415    0.1446   -0.0929 P   0  0  0  0  0  0  0  0  0  0  0  0
   -1.1032    1.6496   -0.3367 S   0  0  0  0  0  0  0  0  0  0  0  0
   -2.8533   -0.0633    1.4004 O   0  0  0  0  0  0  0  0  0  0  0  0
   -1.9785   -0.0388    2.5416 C   0  0  0  0  0  0  0  0  0  0  0  0
   -1.5061   -1.4322    2.9090 C   0  0  0  0  0  0  0  0  0  0  0  0
   -3.6941    0.3770   -0.8639 O   0  0  0  0  0  0  0  0  0  0  0  0
   -4.9561   -0.2653   -0.5486 C   0  0  0  0  0  0  0  0  0  0  0  0
   -4.8930   -1.7707   -0.6898 C   0  0  0  0  0  0  0  0  0  0  0  0
    3.9260   -2.3604   -0.2512 H   0  0  0  0  0  0  0  0  0  0  0  0
    3.2017   -1.7746   -1.7607 H   0  0  0  0  0  0  0  0  0  0  0  0
    4.8740   -2.3464   -1.7502 H   0  0  0  0  0  0  0  0  0  0  0  0
    4.6800    0.1644   -1.8036 H   0  0  0  0  0  0  0  0  0  0  0  0
    5.5692   -0.4242   -0.3659 H   0  0  0  0  0  0  0  0  0  0  0  0
    3.6428    2.0423    1.8869 H   0  0  0  0  0  0  0  0  0  0  0  0
    2.1418    2.8664    2.4024 H   0  0  0  0  0  0  0  0  0  0  0  0
    2.6550   -0.1565    2.4987 H   0  0  0  0  0  0  0  0  0  0  0  0
    2.6722    0.9340    3.8947 H   0  0  0  0  0  0  0  0  0  0  0  0
    1.1637    0.6423    3.0135 H   0  0  0  0  0  0  0  0  0  0  0  0
    0.4872   -2.2341   -1.6516 H   0  0  0  0  0  0  0  0  0  0  0  0
    0.1479   -0.4729   -1.7988 H   0  0  0  0  0  0  0  0  0  0  0  0
   -1.1384    0.6293    2.3214 H   0  0  0  0  0  0  0  0  0  0  0  0
   -2.5848    0.3966    3.3384 H   0  0  0  0  0  0  0  0  0  0  0  0
   -0.8539   -1.8365    2.1381 H   0  0  0  0  0  0  0  0  0  0  0  0
   -0.9549   -1.3842    3.8426 H   0  0  0  0  0  0  0  0  0  0  0  0
   -2.3607   -2.0913    3.0320 H   0  0  0  0  0  0  0  0  0  0  0  0
   -5.2384    0.0225    0.4655 H   0  0  0  0  0  0  0  0  0  0  0  0
   -5.6450    0.1797   -1.2681 H   0  0  0  0  0  0  0  0  0  0  0  0
   -4.1990   -2.1897    0.0367 H   0  0  0  0  0  0  0  0  0  0  0  0
   -5.8815   -2.1837   -0.5146 H   0  0  0  0  0  0  0  0  0  0  0  0
   -4.5605   -2.0466   -1.6871 H   0  0  0  0  0  0  0  0  0  0  0  0
  1  2  1  0  0  0  0
  2  3  1  0  0  0  0
  3  4  2  0  0  0  0
  4  5  2  0  0  0  0
  4  6  2  0  0  0  0
  6  7  1  0  0  0  0
  7  8  1  0  0  0  0
  4  9  1  0  0  0  0
  9 10  1  0  0  0  0
 10 11  1  0  0  0  0
 11 12  1  0  0  0  0
 12 13  2  0  0  0  0
 12 14  2  0  0  0  0
 14 15  1  0  0  0  0
 15 16  1  0  0  0  0
 12 17  2  0  0  0  0
 17 18  1  0  0  0  0
 18 19  1  0  0  0  0
  1 20  1  0  0  0  0
  1 21  1  0  0  0  0
  1 22  1  0  0  0  0
  2 23  1  0  0  0  0
  2 24  1  0  0  0  0
  7 25  1  0  0  0  0
  7 26  1  0  0  0  0
  8 27  1  0  0  0  0
  8 28  1  0  0  0  0
  8 29  1  0  0  0  0
 10 30  1  0  0  0  0
 10 31  1  0  0  0  0
 15 32  1  0  0  0  0
 15 33  1  0  0  0  0
 16 34  1  0  0  0  0
 16 35  1  0  0  0  0
 16 36  1  0  0  0  0
 18 37  1  0  0  0  0
 18 38  1  0  0  0  0
 19 39  1  0  0  0  0
 19 40  1  0  0  0  0
 19 41  1  0  0  0  0
M  END
