10
CONF1
C -0.6928991940 -0.6211309016 -0.3185013828
C 0.6937786563 -0.5879541323 0.2853770312
O 1.4522530768 0.5450756026 -0.1663531165
O -1.4560330690 0.5450497484 0.0411969434
H -1.2071050281 -1.5393171925 -0.0009022319
H -0.6306243009 -0.6161855011 -1.4113686216
H 1.2463825021 -1.4820732568 -0.0214961627
H 0.6221883134 -0.5874336921 1.3839597681
H 0.9323109594 1.3303176870 0.0525871820
H -1.5863004196 0.5189262841 0.9986045733
10
CONF8
C -0.6922858617 -0.5991624426 -0.3000111107
C 0.6843176482 -0.5942305175 0.3286418797
O 1.4919610731 0.5052136625 -0.1316133174
O -1.4841391924 0.5318601144 0.1080767209
H -1.2322608316 -1.4926939680 0.0308336624
H -0.6075828805 -0.6291037011 -1.3947851761
H 1.2115316942 -1.5096887609 0.0398262641
H 0.5996774386 -0.5720017296 1.4235997743
H 1.1476073233 1.3099559625 0.2767459265
H -1.1291116841 1.3115781864 -0.3379386165
10
CONF3
C -0.6868569751 -0.6284295141 -0.2983450449
C 0.6845833450 -0.5681883405 0.3266390741
O 1.4603115368 0.5401574063 -0.1589120984
O -1.4218828179 0.5343407915 0.1270733734
H -1.1896045860 -1.5493020977 0.0315782210
H -0.6001767013 -0.6475925116 -1.3932938260
H 1.2358375425 -1.4761838683 0.0645817657
H 0.5954862883 -0.5221695474 1.4217677424
H 0.9911005698 1.3453011701 0.0951252628
H -2.2401015919 0.5651188373 -0.3835302189
10
CONF9
C -0.6830732105 -0.5569508297 -0.3239348179
C 0.6866619969 -0.5939396899 0.3077375108
O 1.4432295613 0.5398956904 -0.1506365066
O -1.4531846901 0.5900347106 0.0742981543
H -1.2101932256 -1.4876628917 -0.0723872448
H -0.5927763267 -0.4971150376 -1.4134612221
H 1.1796601189 -1.5337068890 0.0188548320
H 0.5925151534 -0.5759163083 1.4035834515
H 2.2897520908 0.5284936715 0.3125732230
H -1.5830844017 0.5310443775 1.0300394810
10
CONF5
C -0.7095176892 -0.5736376609 -0.2604401698
C 0.7022558935 -0.5707695173 0.2874423982
O 1.4751464348 0.5534311233 -0.1633969604
O -1.4662398389 0.5813684565 0.1369179289
H -1.2108228357 -1.4991911075 0.0587912828
H -0.6867916965 -0.5588418794 -1.3557601309
H 1.1902751441 -1.5173921153 0.0124447949
H 0.6798894744 -0.5039163226 1.3808131879
H 1.5467390168 0.4862249443 -1.1247684389
H -1.5432093025 0.5574880903 1.0999624286
10
CONF10
C -0.6745221286 -0.5320670256 0.3518251111
C 0.6671279708 -0.5561683841 -0.3277714726
O 1.4337776650 0.5808483753 0.1079244260
O -1.4256457820 0.5948585619 -0.1339362840
H -0.5401357180 -0.4634919480 1.4403243540
H -1.1949869671 -1.4724352846 0.1243972659
H 0.5332865590 -0.5336550207 -1.4182662991
H 1.1747927688 -1.4926133620 -0.0590789126
H 2.2493454270 0.5936540153 -0.4079197023
H -2.2404959137 0.6418783472 0.3809580506
10
CONF11
C -0.6834859982 -0.5370581816 0.3498253385
C 0.6451562614 -0.4979029884 -0.3523582653
O 1.3592762693 0.6826764126 0.0600185261
O -1.5010209842 0.5459650811 -0.1325303754
H -0.5349834870 -0.4509923101 1.4351927390
H -1.1590118245 -1.5049217745 0.1391155035
H 0.4932498836 -0.4928549250 -1.4406567415
H 1.2063403471 -1.4036300995 -0.0834219269
H 2.1622057082 0.7330201875 -0.4733168808
H -2.3147709780 0.5438946135 0.3862470239
10
CONF2
C -0.5970398992 -0.0105058657 -0.4714337545
C 0.5970101804 0.0105238743 0.4714222202
O 1.8336052304 -0.0117106953 -0.2592700772
O -1.8336388972 0.0117258364 0.2592538004
H -0.5986278391 -0.9388559283 -1.0530627886
H -0.5390528617 0.8350984405 -1.1706898931
H 0.5390241628 -0.8350789355 1.1706797298
H 0.5986001492 0.9388748682 1.0530510267
H 1.8855514202 -0.8648138678 -0.7099386156
H -1.8855211502 0.8647746932 0.7100358234
