 xtb: 6.7.1 (edcfbbe)
          04092513593D

 41 40  0     0  0            999 V2000
    0.9560   -2.7408    1.6789 C   0  0  0  0  0  0  0  0  0  0  0  0
    1.9959   -1.6597    1.8921 C   0  0  0  0  0  0  0  0  0  0  0  0
    1.6442   -0.4703    1.1522 O   0  0  0  0  0  0  0  0  0  0  0  0
    2.3790   -0.0665   -0.2117 P   0  0  0  0  0  0  0  0  0  0  0  0
    2.9967   -1.5293   -1.3444 S   0  0  0  0  0  0  0  0  0  0  0  0
    3.6003    0.8555    0.2173 O   0  0  0  0  0  0  0  0  0  0  0  0
    3.4286    2.0068    1.0815 C   0  0  0  0  0  0  0  0  0  0  0  0
    4.7952    2.4280    1.5815 C   0  0  0  0  0  0  0  0  0  0  0  0
    0.9615    1.2944   -0.9858 S   0  0  0  0  0  0  0  0  0  0  0  0
    0.0840    0.1451   -2.0816 C   0  0  0  0  0  0  0  0  0  0  0  0
   -0.8134   -1.1697   -1.2139 S   0  0  0  0  0  0  0  0  0  0  0  0
   -2.1656    0.0682   -0.1624 P   0  0  0  0  0  0  0  0  0  0  0  0
   -2.8570    1.6523   -1.0937 S   0  0  0  0  0  0  0  0  0  0  0  0
   -1.3173    0.3354    1.1485 O   0  0  0  0  0  0  0  0  0  0  0  0
   -1.4975    1.5061    1.9680 C   0  0  0  0  0  0  0  0  0  0  0  0
   -2.7645    1.4254    2.7943 C   0  0  0  0  0  0  0  0  0  0  0  0
   -3.2695   -0.9401    0.3777 O   0  0  0  0  0  0  0  0  0  0  0  0
   -4.5070   -1.2051   -0.3066 C   0  0  0  0  0  0  0  0  0  0  0  0
   -4.3166   -2.0750   -1.5328 C   0  0  0  0  0  0  0  0  0  0  0  0
   -0.0336   -2.3547    1.9108 H   0  0  0  0  0  0  0  0  0  0  0  0
    0.9662   -3.0719    0.6425 H   0  0  0  0  0  0  0  0  0  0  0  0
    1.1781   -3.5836    2.3256 H   0  0  0  0  0  0  0  0  0  0  0  0
    2.9865   -2.0022    1.5765 H   0  0  0  0  0  0  0  0  0  0  0  0
    2.0323   -1.3424    2.9362 H   0  0  0  0  0  0  0  0  0  0  0  0
    2.9555    2.7980    0.4944 H   0  0  0  0  0  0  0  0  0  0  0  0
    2.7678    1.7284    1.9069 H   0  0  0  0  0  0  0  0  0  0  0  0
    5.4405    2.6690    0.7419 H   0  0  0  0  0  0  0  0  0  0  0  0
    4.6849    3.3040    2.2130 H   0  0  0  0  0  0  0  0  0  0  0  0
    5.2525    1.6263    2.1544 H   0  0  0  0  0  0  0  0  0  0  0  0
    0.7998   -0.3550   -2.7335 H   0  0  0  0  0  0  0  0  0  0  0  0
   -0.6150    0.7563   -2.6520 H   0  0  0  0  0  0  0  0  0  0  0  0
   -0.6053    1.5271    2.5956 H   0  0  0  0  0  0  0  0  0  0  0  0
   -1.5119    2.3875    1.3181 H   0  0  0  0  0  0  0  0  0  0  0  0
   -2.7775    0.5082    3.3769 H   0  0  0  0  0  0  0  0  0  0  0  0
   -2.8106    2.2795    3.4631 H   0  0  0  0  0  0  0  0  0  0  0  0
   -3.6356    1.4403    2.1407 H   0  0  0  0  0  0  0  0  0  0  0  0
   -5.1188   -1.7055    0.4457 H   0  0  0  0  0  0  0  0  0  0  0  0
   -4.9632   -0.2485   -0.5815 H   0  0  0  0  0  0  0  0  0  0  0  0
   -3.7751   -2.9815   -1.2751 H   0  0  0  0  0  0  0  0  0  0  0  0
   -5.2900   -2.3399   -1.9343 H   0  0  0  0  0  0  0  0  0  0  0  0
   -3.7553   -1.5362   -2.2945 H   0  0  0  0  0  0  0  0  0  0  0  0
  1  2  1  0  0  0  0
  2  3  1  0  0  0  0
  3  4  1  0  0  0  0
  4  5  2  0  0  0  0
  4  6  2  0  0  0  0
  6  7  1  0  0  0  0
  7  8  1  0  0  0  0
  4  9  1  0  0  0  0
  9 10  1  0  0  0  0
 10 11  1  0  0  0  0
 11 12  1  0  0  0  0
 12 13  2  0  0  0  0
 12 14  2  0  0  0  0
 14 15  1  0  0  0  0
 15 16  1  0  0  0  0
 12 17  2  0  0  0  0
 17 18  1  0  0  0  0
 18 19  1  0  0  0  0
  1 20  1  0  0  0  0
  1 21  1  0  0  0  0
  1 22  1  0  0  0  0
  2 23  1  0  0  0  0
  2 24  1  0  0  0  0
  7 25  1  0  0  0  0
  7 26  1  0  0  0  0
  8 27  1  0  0  0  0
  8 28  1  0  0  0  0
  8 29  1  0  0  0  0
 10 30  1  0  0  0  0
 10 31  1  0  0  0  0
 15 32  1  0  0  0  0
 15 33  1  0  0  0  0
 16 34  1  0  0  0  0
 16 35  1  0  0  0  0
 16 36  1  0  0  0  0
 18 37  1  0  0  0  0
 18 38  1  0  0  0  0
 19 39  1  0  0  0  0
 19 40  1  0  0  0  0
 19 41  1  0  0  0  0
M  END
