 xtb: 6.7.1 (edcfbbe)
          04092505213D

 41 40  0     0  0            999 V2000
    1.3746   -2.1413    1.9546 C   0  0  0  0  0  0  0  0  0  0  0  0
    2.8608   -1.9494    1.7347 C   0  0  0  0  0  0  0  0  0  0  0  0
    3.1763   -0.6208    1.2809 O   0  0  0  0  0  0  0  0  0  0  0  0
    2.7924   -0.0909   -0.1715 P   0  0  0  0  0  0  0  0  0  0  0  0
    2.9809   -1.3829   -1.6255 S   0  0  0  0  0  0  0  0  0  0  0  0
    3.7734    1.1322   -0.3250 O   0  0  0  0  0  0  0  0  0  0  0  0
    3.8691    2.1818    0.6726 C   0  0  0  0  0  0  0  0  0  0  0  0
    4.5811    3.3569    0.0365 C   0  0  0  0  0  0  0  0  0  0  0  0
    0.8687    0.8424    0.0408 S   0  0  0  0  0  0  0  0  0  0  0  0
   -0.0303   -0.0150   -1.2759 C   0  0  0  0  0  0  0  0  0  0  0  0
   -1.2400   -1.2020   -0.6482 S   0  0  0  0  0  0  0  0  0  0  0  0
   -2.7326    0.2473   -0.1729 P   0  0  0  0  0  0  0  0  0  0  0  0
   -3.0024    1.6541   -1.5037 S   0  0  0  0  0  0  0  0  0  0  0  0
   -2.3109    0.8406    1.2229 O   0  0  0  0  0  0  0  0  0  0  0  0
   -2.1059    0.0228    2.4051 C   0  0  0  0  0  0  0  0  0  0  0  0
   -1.1560    0.7664    3.3207 C   0  0  0  0  0  0  0  0  0  0  0  0
   -4.0067   -0.6251    0.2062 O   0  0  0  0  0  0  0  0  0  0  0  0
   -4.9683   -1.0732   -0.7664 C   0  0  0  0  0  0  0  0  0  0  0  0
   -4.3731   -2.0509   -1.7586 C   0  0  0  0  0  0  0  0  0  0  0  0
    0.9874   -1.3627    2.6066 H   0  0  0  0  0  0  0  0  0  0  0  0
    0.8472   -2.1084    1.0016 H   0  0  0  0  0  0  0  0  0  0  0  0
    1.2030   -3.1109    2.4108 H   0  0  0  0  0  0  0  0  0  0  0  0
    3.2384   -2.6654    0.9982 H   0  0  0  0  0  0  0  0  0  0  0  0
    3.4208   -2.0441    2.6662 H   0  0  0  0  0  0  0  0  0  0  0  0
    2.8575    2.4501    0.9915 H   0  0  0  0  0  0  0  0  0  0  0  0
    4.4244    1.7846    1.5241 H   0  0  0  0  0  0  0  0  0  0  0  0
    4.6888    4.1487    0.7708 H   0  0  0  0  0  0  0  0  0  0  0  0
    5.5635    3.0515   -0.3120 H   0  0  0  0  0  0  0  0  0  0  0  0
    4.0102    3.7275   -0.8103 H   0  0  0  0  0  0  0  0  0  0  0  0
    0.6835   -0.5718   -1.8876 H   0  0  0  0  0  0  0  0  0  0  0  0
   -0.5579    0.7372   -1.8638 H   0  0  0  0  0  0  0  0  0  0  0  0
   -3.0807   -0.1307    2.8711 H   0  0  0  0  0  0  0  0  0  0  0  0
   -1.6975   -0.9440    2.0958 H   0  0  0  0  0  0  0  0  0  0  0  0
   -1.5793    1.7291    3.5920 H   0  0  0  0  0  0  0  0  0  0  0  0
   -0.9921    0.1791    4.2186 H   0  0  0  0  0  0  0  0  0  0  0  0
   -0.2087    0.9380    2.8154 H   0  0  0  0  0  0  0  0  0  0  0  0
   -5.7486   -1.5376   -0.1617 H   0  0  0  0  0  0  0  0  0  0  0  0
   -5.3695   -0.1963   -1.2836 H   0  0  0  0  0  0  0  0  0  0  0  0
   -3.6513   -1.5430   -2.3968 H   0  0  0  0  0  0  0  0  0  0  0  0
   -3.8711   -2.8625   -1.2376 H   0  0  0  0  0  0  0  0  0  0  0  0
   -5.1648   -2.4562   -2.3805 H   0  0  0  0  0  0  0  0  0  0  0  0
  1  2  1  0  0  0  0
  2  3  1  0  0  0  0
  3  4  2  0  0  0  0
  4  5  2  0  0  0  0
  4  6  2  0  0  0  0
  6  7  1  0  0  0  0
  7  8  1  0  0  0  0
  4  9  1  0  0  0  0
  9 10  1  0  0  0  0
 10 11  1  0  0  0  0
 11 12  1  0  0  0  0
 12 13  2  0  0  0  0
 12 14  2  0  0  0  0
 14 15  1  0  0  0  0
 15 16  1  0  0  0  0
 12 17  2  0  0  0  0
 17 18  1  0  0  0  0
 18 19  1  0  0  0  0
  1 20  1  0  0  0  0
  1 21  1  0  0  0  0
  1 22  1  0  0  0  0
  2 23  1  0  0  0  0
  2 24  1  0  0  0  0
  7 25  1  0  0  0  0
  7 26  1  0  0  0  0
  8 27  1  0  0  0  0
  8 28  1  0  0  0  0
  8 29  1  0  0  0  0
 10 30  1  0  0  0  0
 10 31  1  0  0  0  0
 15 32  1  0  0  0  0
 15 33  1  0  0  0  0
 16 34  1  0  0  0  0
 16 35  1  0  0  0  0
 16 36  1  0  0  0  0
 18 37  1  0  0  0  0
 18 38  1  0  0  0  0
 19 39  1  0  0  0  0
 19 40  1  0  0  0  0
 19 41  1  0  0  0  0
M  END
