41
 xtb: 6.7.1 (edcfbbe)
C            5.92704285800791       -1.13741128501630       -0.16839764703678
C            4.53653334518651       -1.59137868879356        0.19295837893256
O            3.72205901290751       -0.40784231711055        0.51594455240742
P            2.38728943273915       -0.06137537224140       -0.31517079357496
S            2.49993713404777       -0.17039284596677       -2.25856473014003
O            2.01224729633237        1.36282000283016        0.31676196148449
C            2.61059072503382        2.60672879983355       -0.20737576519439
C            1.56012899368797        3.38654470947432       -0.95491344698365
S            0.97557682544537       -1.34230405016198        0.59985264893318
C           -0.34448676307976       -1.37140749443065       -0.67877986164430
S           -1.25509609159786        0.20331846854370       -0.96785710959301
P           -2.87574446218064        0.02981617606136        0.37786222925925
S           -4.09430381282708        1.51749223510676        0.07966616262668
O           -2.26737702751055       -0.17100249614770        1.85230057593250
C           -2.03441789038029        0.95699600527054        2.76617063444257
C           -0.79585449921793        1.74353274440365        2.41652851010775
O           -3.44634442234511       -1.46669911295961        0.23324434553295
C           -4.46337443476014       -1.83171573045915       -0.76294446324136
C           -3.89039795720679       -1.99596040151675       -2.14927765606348
H            6.37174101237960       -0.55733763697851        0.64517575610247
H            6.55411386714265       -2.01666462029785       -0.34735260719766
H            5.91570721377162       -0.52853357432467       -1.07695167983132
H            4.52678314830570       -2.21070495199399        1.09340232193937
H            4.06765252150498       -2.14539443135411       -0.62585403839981
H            2.96412024204889        3.13889079827594        0.67883496883645
H            3.46966694928866        2.36303095206961       -0.83962150548149
H            0.69920826279518        3.59202198736185       -0.31179696672701
H            1.98697064574736        4.34198359337229       -1.27717658321639
H            1.22258855818628        2.84019590700686       -1.83986065583207
H           -1.04017304852460       -2.15796866164155       -0.37287093249659
H            0.10269969905772       -1.64483973458536       -1.63826496810384
H           -2.93119640177772        1.58382914149915        2.76889836796614
H           -1.93774553426448        0.47288736436084        3.74004887752112
H           -0.89860607735286        2.26040588279948        1.45823961855461
H           -0.63880527337178        2.49775411769382        3.19501207900366
H            0.08267710562604        1.09518683202621        2.37868906563835
H           -4.85708500048197       -2.77544194592740       -0.38050124333138
H           -5.25638393148652       -1.07822687045236       -0.73399070506408
H           -4.66723184242825       -2.42543645633807       -2.79057589017977
H           -3.58341228833810       -1.03975782022175       -2.57982918069582
H           -3.03438515214693       -2.67764466422768       -2.14382033818628
