 xtb: 6.7.1 (edcfbbe)
          04092507313D

 38 37  0     0  0            999 V2000
    5.0390   -0.6063    0.5120 C   0  0  0  0  0  0  0  0  0  0  0  0
    4.5920   -1.6731   -0.4743 C   0  0  0  0  0  0  0  0  0  0  0  0
    3.1549   -1.7846   -0.4889 O   0  0  0  0  0  0  0  0  0  0  0  0
    2.4740   -0.9893   -1.2856 C   0  0  0  0  0  0  0  0  0  0  0  0
    2.9651   -0.1842   -2.0460 O   0  0  0  0  0  0  0  0  0  0  0  0
    0.9799   -1.2321   -1.1632 C   0  0  0  0  0  0  0  0  0  0  0  0
    0.2392    0.0857   -1.3420 C   0  0  0  0  0  0  0  0  0  0  0  0
    0.6157    0.5836   -2.2440 H   0  0  0  0  0  0  0  0  0  0  0  0
    0.4281    1.0472   -0.1841 C   0  0  0  0  0  0  0  0  0  0  0  0
   -0.4345    1.8390    0.1431 O   0  0  0  0  0  0  0  0  0  0  0  0
    1.6025    0.9335    0.3731 O   0  0  0  0  0  0  0  0  0  0  0  0
    1.9161    1.8051    1.4809 C   0  0  0  0  0  0  0  0  0  0  0  0
    2.4113    3.1553    0.9920 C   0  0  0  0  0  0  0  0  0  0  0  0
   -1.5497   -0.1180   -1.6166 S   0  0  0  0  0  0  0  0  0  0  0  0
   -2.1979   -0.2123    0.3832 P   0  0  0  0  0  0  0  0  0  0  0  0
   -1.0244   -0.7924    1.8367 S   0  0  0  0  0  0  0  0  0  0  0  0
   -2.9877    1.1092    0.8021 O   0  0  0  0  0  0  0  0  0  0  0  0
   -3.7644    1.8617   -0.1459 C   0  0  0  0  0  0  0  0  0  0  0  0
   -3.3611   -1.2787    0.0464 O   0  0  0  0  0  0  0  0  0  0  0  0
   -4.1762   -1.8069    1.0983 C   0  0  0  0  0  0  0  0  0  0  0  0
    6.1231   -0.5764    0.5441 H   0  0  0  0  0  0  0  0  0  0  0  0
    4.6651    0.3656    0.1990 H   0  0  0  0  0  0  0  0  0  0  0  0
    4.6553   -0.8321    1.5032 H   0  0  0  0  0  0  0  0  0  0  0  0
    4.9399   -2.6625   -0.1774 H   0  0  0  0  0  0  0  0  0  0  0  0
    4.9331   -1.4338   -1.4855 H   0  0  0  0  0  0  0  0  0  0  0  0
    0.7675   -1.6904   -0.1963 H   0  0  0  0  0  0  0  0  0  0  0  0
    0.6802   -1.9199   -1.9567 H   0  0  0  0  0  0  0  0  0  0  0  0
    1.0183    1.9112    2.0967 H   0  0  0  0  0  0  0  0  0  0  0  0
    2.6877    1.2668    2.0313 H   0  0  0  0  0  0  0  0  0  0  0  0
    1.6156    3.6801    0.4683 H   0  0  0  0  0  0  0  0  0  0  0  0
    2.7252    3.7488    1.8440 H   0  0  0  0  0  0  0  0  0  0  0  0
    3.2520    3.0233    0.3157 H   0  0  0  0  0  0  0  0  0  0  0  0
   -4.4687    2.4384    0.4485 H   0  0  0  0  0  0  0  0  0  0  0  0
   -4.2870    1.1935   -0.8314 H   0  0  0  0  0  0  0  0  0  0  0  0
   -3.0987    2.5230   -0.6995 H   0  0  0  0  0  0  0  0  0  0  0  0
   -3.5482   -2.2850    1.8520 H   0  0  0  0  0  0  0  0  0  0  0  0
   -4.8256   -2.5374    0.6233 H   0  0  0  0  0  0  0  0  0  0  0  0
   -4.7625   -1.0140    1.5644 H   0  0  0  0  0  0  0  0  0  0  0  0
  1  2  1  0  0  0  0
  2  3  1  0  0  0  0
  3  4  1  0  0  0  0
  4  5  2  0  0  0  0
  4  6  1  0  0  0  0
  6  7  1  0  0  0  0
  7  8  1  0  0  0  0
  7  9  1  0  0  0  0
  9 10  2  0  0  0  0
  9 11  4  0  0  0  0
 11 12  1  0  0  0  0
 12 13  1  0  0  0  0
  7 14  1  0  0  0  0
 14 15  1  0  0  0  0
 15 16  2  0  0  0  0
 15 17  1  0  0  0  0
 17 18  1  0  0  0  0
 15 19  1  0  0  0  0
 19 20  1  0  0  0  0
  1 21  1  0  0  0  0
  1 22  1  0  0  0  0
  1 23  1  0  0  0  0
  2 24  1  0  0  0  0
  2 25  1  0  0  0  0
  6 26  1  0  0  0  0
  6 27  1  0  0  0  0
 12 28  1  0  0  0  0
 12 29  1  0  0  0  0
 13 30  1  0  0  0  0
 13 31  1  0  0  0  0
 13 32  1  0  0  0  0
 18 33  1  0  0  0  0
 18 34  1  0  0  0  0
 18 35  1  0  0  0  0
 20 36  1  0  0  0  0
 20 37  1  0  0  0  0
 20 38  1  0  0  0  0
M  END
