 xtb: 6.7.1 (edcfbbe)
          04092507313D

 38 37  0     0  0            999 V2000
    3.0294   -3.8677    1.2196 C   0  0  0  0  0  0  0  0  0  0  0  0
    2.9666   -3.2332   -0.1604 C   0  0  0  0  0  0  0  0  0  0  0  0
    2.9220   -1.7956   -0.0636 O   0  0  0  0  0  0  0  0  0  0  0  0
    1.7560   -1.2095    0.0905 C   0  0  0  0  0  0  0  0  0  0  0  0
    0.6944   -1.8025    0.1259 O   0  0  0  0  0  0  0  0  0  0  0  0
    1.8977    0.2908    0.2178 C   0  0  0  0  0  0  0  0  0  0  0  0
    0.5906    0.9802   -0.1308 C   0  0  0  0  0  0  0  0  0  0  0  0
    0.2299    0.6551   -1.1176 H   0  0  0  0  0  0  0  0  0  0  0  0
    0.6349    2.5005   -0.1261 C   0  0  0  0  0  0  0  0  0  0  0  0
   -0.3000    3.1755   -0.4934 O   0  0  0  0  0  0  0  0  0  0  0  0
    1.7723    2.9662    0.3343 O   0  0  0  0  0  0  0  0  0  0  0  0
    1.9473    4.3973    0.4037 C   0  0  0  0  0  0  0  0  0  0  0  0
    2.4613    4.9483   -0.9164 C   0  0  0  0  0  0  0  0  0  0  0  0
   -0.7450    0.5287    1.0421 S   0  0  0  0  0  0  0  0  0  0  0  0
   -1.7939   -0.8786   -0.1700 P   0  0  0  0  0  0  0  0  0  0  0  0
   -1.3063   -1.0330   -2.0597 S   0  0  0  0  0  0  0  0  0  0  0  0
   -1.9196   -2.2484    0.5978 O   0  0  0  0  0  0  0  0  0  0  0  0
   -2.3428   -2.3214    1.9732 C   0  0  0  0  0  0  0  0  0  0  0  0
   -3.3074   -0.3490    0.0133 O   0  0  0  0  0  0  0  0  0  0  0  0
   -3.7268    0.8768   -0.5859 C   0  0  0  0  0  0  0  0  0  0  0  0
    3.1345   -4.9425    1.1145 H   0  0  0  0  0  0  0  0  0  0  0  0
    3.8786   -3.4761    1.7727 H   0  0  0  0  0  0  0  0  0  0  0  0
    2.1162   -3.6558    1.7708 H   0  0  0  0  0  0  0  0  0  0  0  0
    2.0823   -3.5736   -0.7072 H   0  0  0  0  0  0  0  0  0  0  0  0
    3.8701   -3.4373   -0.7350 H   0  0  0  0  0  0  0  0  0  0  0  0
    2.6970    0.6262   -0.4431 H   0  0  0  0  0  0  0  0  0  0  0  0
    2.1864    0.5229    1.2456 H   0  0  0  0  0  0  0  0  0  0  0  0
    0.9885    4.8522    0.6662 H   0  0  0  0  0  0  0  0  0  0  0  0
    2.6721    4.5402    1.2048 H   0  0  0  0  0  0  0  0  0  0  0  0
    1.7271    4.7836   -1.7019 H   0  0  0  0  0  0  0  0  0  0  0  0
    2.6338    6.0146   -0.8153 H   0  0  0  0  0  0  0  0  0  0  0  0
    3.3916    4.4600   -1.1924 H   0  0  0  0  0  0  0  0  0  0  0  0
   -1.6943   -1.7036    2.5946 H   0  0  0  0  0  0  0  0  0  0  0  0
   -2.2479   -3.3707    2.2407 H   0  0  0  0  0  0  0  0  0  0  0  0
   -3.3753   -1.9880    2.0618 H   0  0  0  0  0  0  0  0  0  0  0  0
   -3.5722    0.8378   -1.6655 H   0  0  0  0  0  0  0  0  0  0  0  0
   -3.1656    1.7156   -0.1698 H   0  0  0  0  0  0  0  0  0  0  0  0
   -4.7842    0.9715   -0.3542 H   0  0  0  0  0  0  0  0  0  0  0  0
  1  2  1  0  0  0  0
  2  3  1  0  0  0  0
  3  4  4  0  0  0  0
  4  5  2  0  0  0  0
  4  6  1  0  0  0  0
  6  7  1  0  0  0  0
  7  8  1  0  0  0  0
  7  9  1  0  0  0  0
  9 10  2  0  0  0  0
  9 11  4  0  0  0  0
 11 12  1  0  0  0  0
 12 13  1  0  0  0  0
  7 14  1  0  0  0  0
 14 15  1  0  0  0  0
 15 16  2  0  0  0  0
 15 17  2  0  0  0  0
 17 18  1  0  0  0  0
 15 19  1  0  0  0  0
 19 20  1  0  0  0  0
  1 21  1  0  0  0  0
  1 22  1  0  0  0  0
  1 23  1  0  0  0  0
  2 24  1  0  0  0  0
  2 25  1  0  0  0  0
  6 26  1  0  0  0  0
  6 27  1  0  0  0  0
 12 28  1  0  0  0  0
 12 29  1  0  0  0  0
 13 30  1  0  0  0  0
 13 31  1  0  0  0  0
 13 32  1  0  0  0  0
 18 33  1  0  0  0  0
 18 34  1  0  0  0  0
 18 35  1  0  0  0  0
 20 36  1  0  0  0  0
 20 37  1  0  0  0  0
 20 38  1  0  0  0  0
M  END
