 xtb: 6.7.1 (edcfbbe)
          04092505213D

 41 40  0     0  0            999 V2000
    2.5774   -3.1706   -0.3684 C   0  0  0  0  0  0  0  0  0  0  0  0
    3.3468   -2.1918   -1.2307 C   0  0  0  0  0  0  0  0  0  0  0  0
    3.5304   -0.9101   -0.5860 O   0  0  0  0  0  0  0  0  0  0  0  0
    2.3789    0.1003   -0.1705 P   0  0  0  0  0  0  0  0  0  0  0  0
    3.1420    1.8742    0.1269 S   0  0  0  0  0  0  0  0  0  0  0  0
    1.6164   -0.5337    1.0836 O   0  0  0  0  0  0  0  0  0  0  0  0
    1.9817   -0.2289    2.4465 C   0  0  0  0  0  0  0  0  0  0  0  0
    1.0503    0.8112    3.0352 C   0  0  0  0  0  0  0  0  0  0  0  0
    0.9193   -0.1239   -1.6804 S   0  0  0  0  0  0  0  0  0  0  0  0
    0.1618    1.5066   -1.4765 C   0  0  0  0  0  0  0  0  0  0  0  0
   -0.7301    1.7007    0.0841 S   0  0  0  0  0  0  0  0  0  0  0  0
   -2.1904    0.2154   -0.2913 P   0  0  0  0  0  0  0  0  0  0  0  0
   -2.8368    0.0772   -2.1294 S   0  0  0  0  0  0  0  0  0  0  0  0
   -3.3735    0.5315    0.7141 O   0  0  0  0  0  0  0  0  0  0  0  0
   -3.2421    0.5024    2.1567 C   0  0  0  0  0  0  0  0  0  0  0  0
   -2.9737    1.8873    2.7102 C   0  0  0  0  0  0  0  0  0  0  0  0
   -1.4425   -1.0721    0.2963 O   0  0  0  0  0  0  0  0  0  0  0  0
   -1.6480   -2.3880   -0.2490 C   0  0  0  0  0  0  0  0  0  0  0  0
   -3.0253   -2.9206    0.0904 C   0  0  0  0  0  0  0  0  0  0  0  0
    1.5688   -2.8003   -0.1977 H   0  0  0  0  0  0  0  0  0  0  0  0
    2.5227   -4.1265   -0.8798 H   0  0  0  0  0  0  0  0  0  0  0  0
    3.0748   -3.3029    0.5891 H   0  0  0  0  0  0  0  0  0  0  0  0
    2.8356   -2.0263   -2.1828 H   0  0  0  0  0  0  0  0  0  0  0  0
    4.3682   -2.5295   -1.4135 H   0  0  0  0  0  0  0  0  0  0  0  0
    1.8999   -1.1807    2.9744 H   0  0  0  0  0  0  0  0  0  0  0  0
    3.0185    0.1196    2.4722 H   0  0  0  0  0  0  0  0  0  0  0  0
    0.0191    0.4829    2.9414 H   0  0  0  0  0  0  0  0  0  0  0  0
    1.2909    0.9548    4.0835 H   0  0  0  0  0  0  0  0  0  0  0  0
    1.1644    1.7570    2.5097 H   0  0  0  0  0  0  0  0  0  0  0  0
   -0.5316    1.6271   -2.3088 H   0  0  0  0  0  0  0  0  0  0  0  0
    0.9379    2.2722   -1.4863 H   0  0  0  0  0  0  0  0  0  0  0  0
   -4.2036    0.1195    2.5034 H   0  0  0  0  0  0  0  0  0  0  0  0
   -2.4466   -0.1968    2.4255 H   0  0  0  0  0  0  0  0  0  0  0  0
   -2.0146    2.2636    2.3598 H   0  0  0  0  0  0  0  0  0  0  0  0
   -3.7532    2.5727    2.3896 H   0  0  0  0  0  0  0  0  0  0  0  0
   -2.9620    1.8399    3.7947 H   0  0  0  0  0  0  0  0  0  0  0  0
   -1.5054   -2.3426   -1.3332 H   0  0  0  0  0  0  0  0  0  0  0  0
   -0.8591   -2.9900    0.2047 H   0  0  0  0  0  0  0  0  0  0  0  0
   -3.1678   -2.9526    1.1675 H   0  0  0  0  0  0  0  0  0  0  0  0
   -3.7859   -2.2753   -0.3489 H   0  0  0  0  0  0  0  0  0  0  0  0
   -3.1348   -3.9206   -0.3172 H   0  0  0  0  0  0  0  0  0  0  0  0
  1  2  1  0  0  0  0
  2  3  1  0  0  0  0
  3  4  2  0  0  0  0
  4  5  2  0  0  0  0
  4  6  1  0  0  0  0
  6  7  1  0  0  0  0
  7  8  1  0  0  0  0
  4  9  1  0  0  0  0
  9 10  1  0  0  0  0
 10 11  1  0  0  0  0
 11 12  1  0  0  0  0
 12 13  2  0  0  0  0
 12 14  2  0  0  0  0
 14 15  1  0  0  0  0
 15 16  1  0  0  0  0
 12 17  1  0  0  0  0
 17 18  1  0  0  0  0
 18 19  1  0  0  0  0
  1 20  1  0  0  0  0
  1 21  1  0  0  0  0
  1 22  1  0  0  0  0
  2 23  1  0  0  0  0
  2 24  1  0  0  0  0
  7 25  1  0  0  0  0
  7 26  1  0  0  0  0
  8 27  1  0  0  0  0
  8 28  1  0  0  0  0
  8 29  1  0  0  0  0
 10 30  1  0  0  0  0
 10 31  1  0  0  0  0
 15 32  1  0  0  0  0
 15 33  1  0  0  0  0
 16 34  1  0  0  0  0
 16 35  1  0  0  0  0
 16 36  1  0  0  0  0
 18 37  1  0  0  0  0
 18 38  1  0  0  0  0
 19 39  1  0  0  0  0
 19 40  1  0  0  0  0
 19 41  1  0  0  0  0
M  END
