 xtb: 6.7.1 (edcfbbe)
          04092505203D

 41 40  0     0  0            999 V2000
    5.3808   -0.1182   -1.4565 C   0  0  0  0  0  0  0  0  0  0  0  0
    4.5797   -0.6313   -0.2762 C   0  0  0  0  0  0  0  0  0  0  0  0
    3.5983    0.3309    0.1574 O   0  0  0  0  0  0  0  0  0  0  0  0
    2.1300    0.4394   -0.4510 P   0  0  0  0  0  0  0  0  0  0  0  0
    1.9801    0.8390   -2.3587 S   0  0  0  0  0  0  0  0  0  0  0  0
    1.5294    1.5657    0.4682 O   0  0  0  0  0  0  0  0  0  0  0  0
    1.6647    1.5466    1.9132 C   0  0  0  0  0  0  0  0  0  0  0  0
    0.6900    2.5559    2.4807 C   0  0  0  0  0  0  0  0  0  0  0  0
    1.3095   -1.4348    0.1492 S   0  0  0  0  0  0  0  0  0  0  0  0
    0.1806   -1.7733   -1.2369 C   0  0  0  0  0  0  0  0  0  0  0  0
   -1.5206   -2.0470   -0.6995 S   0  0  0  0  0  0  0  0  0  0  0  0
   -1.8999   -0.0965    0.0689 P   0  0  0  0  0  0  0  0  0  0  0  0
   -1.3370    1.3901   -1.0743 S   0  0  0  0  0  0  0  0  0  0  0  0
   -1.2482   -0.0411    1.4999 O   0  0  0  0  0  0  0  0  0  0  0  0
   -1.5625   -0.9944    2.5511 C   0  0  0  0  0  0  0  0  0  0  0  0
   -2.5620   -0.4004    3.5206 C   0  0  0  0  0  0  0  0  0  0  0  0
   -3.4517   -0.1660    0.3925 O   0  0  0  0  0  0  0  0  0  0  0  0
   -4.4335   -0.1800   -0.6641 C   0  0  0  0  0  0  0  0  0  0  0  0
   -5.7827    0.1283   -0.0475 C   0  0  0  0  0  0  0  0  0  0  0  0
    6.1469   -0.8438   -1.7102 H   0  0  0  0  0  0  0  0  0  0  0  0
    4.7331    0.0323   -2.3173 H   0  0  0  0  0  0  0  0  0  0  0  0
    5.8505    0.8292   -1.2067 H   0  0  0  0  0  0  0  0  0  0  0  0
    5.2142   -0.7755    0.6004 H   0  0  0  0  0  0  0  0  0  0  0  0
    4.0753   -1.5701   -0.5207 H   0  0  0  0  0  0  0  0  0  0  0  0
    1.4470    0.5339    2.2654 H   0  0  0  0  0  0  0  0  0  0  0  0
    2.6985    1.8007    2.1542 H   0  0  0  0  0  0  0  0  0  0  0  0
    0.9109    3.5456    2.0911 H   0  0  0  0  0  0  0  0  0  0  0  0
   -0.3247    2.2911    2.1940 H   0  0  0  0  0  0  0  0  0  0  0  0
    0.7732    2.5636    3.5627 H   0  0  0  0  0  0  0  0  0  0  0  0
    0.4981   -2.6951   -1.7178 H   0  0  0  0  0  0  0  0  0  0  0  0
    0.2265   -0.9295   -1.9322 H   0  0  0  0  0  0  0  0  0  0  0  0
   -1.9464   -1.9106    2.0949 H   0  0  0  0  0  0  0  0  0  0  0  0
   -0.6050   -1.1998    3.0337 H   0  0  0  0  0  0  0  0  0  0  0  0
   -2.1728    0.5212    3.9443 H   0  0  0  0  0  0  0  0  0  0  0  0
   -3.4963   -0.1844    3.0094 H   0  0  0  0  0  0  0  0  0  0  0  0
   -2.7456   -1.1126    4.3188 H   0  0  0  0  0  0  0  0  0  0  0  0
   -4.1501    0.5684   -1.4115 H   0  0  0  0  0  0  0  0  0  0  0  0
   -4.4211   -1.1704   -1.1270 H   0  0  0  0  0  0  0  0  0  0  0  0
   -5.7652    1.1098    0.4180 H   0  0  0  0  0  0  0  0  0  0  0  0
   -6.5394    0.1151   -0.8248 H   0  0  0  0  0  0  0  0  0  0  0  0
   -6.0267   -0.6166    0.7042 H   0  0  0  0  0  0  0  0  0  0  0  0
  1  2  1  0  0  0  0
  2  3  1  0  0  0  0
  3  4  2  0  0  0  0
  4  5  2  0  0  0  0
  4  6  2  0  0  0  0
  6  7  1  0  0  0  0
  7  8  1  0  0  0  0
  4  9  1  0  0  0  0
  9 10  1  0  0  0  0
 10 11  1  0  0  0  0
 11 12  1  0  0  0  0
 12 13  2  0  0  0  0
 12 14  2  0  0  0  0
 14 15  1  0  0  0  0
 15 16  1  0  0  0  0
 12 17  2  0  0  0  0
 17 18  1  0  0  0  0
 18 19  1  0  0  0  0
  1 20  1  0  0  0  0
  1 21  1  0  0  0  0
  1 22  1  0  0  0  0
  2 23  1  0  0  0  0
  2 24  1  0  0  0  0
  7 25  1  0  0  0  0
  7 26  1  0  0  0  0
  8 27  1  0  0  0  0
  8 28  1  0  0  0  0
  8 29  1  0  0  0  0
 10 30  1  0  0  0  0
 10 31  1  0  0  0  0
 15 32  1  0  0  0  0
 15 33  1  0  0  0  0
 16 34  1  0  0  0  0
 16 35  1  0  0  0  0
 16 36  1  0  0  0  0
 18 37  1  0  0  0  0
 18 38  1  0  0  0  0
 19 39  1  0  0  0  0
 19 40  1  0  0  0  0
 19 41  1  0  0  0  0
M  END
