 xtb: 6.7.1 (edcfbbe)
          04032520143D

  5  4  0     0  0            999 V2000
   -0.0001    0.0000    0.5060 C   0  0  0  0  0  0  0  0  0  0  0  0
   -1.5895    0.5284   -0.0723 Cl  0  0  0  0  0  0  0  0  0  0  0  0
    0.3371   -1.6407   -0.0723 Cl  0  0  0  0  0  0  0  0  0  0  0  0
    1.2525    1.1122   -0.0723 Cl  0  0  0  0  0  0  0  0  0  0  0  0
    0.0000   -0.0000    1.5977 H   0  0  0  0  0  0  0  0  0  0  0  0
  1  2  1  0  0  0  0
  1  3  1  0  0  0  0
  1  4  1  0  0  0  0
  1  5  1  0  0  0  0
M  END
