 xtb: 6.7.1 (edcfbbe)
          04092507313D

 38 37  0     0  0            999 V2000
    4.1826    0.1272   -2.6131 C   0  0  0  0  0  0  0  0  0  0  0  0
    4.3129   -1.2483   -1.9792 C   0  0  0  0  0  0  0  0  0  0  0  0
    3.0152   -1.7276   -1.5763 O   0  0  0  0  0  0  0  0  0  0  0  0
    2.6768   -1.6700   -0.3070 C   0  0  0  0  0  0  0  0  0  0  0  0
    3.4022   -1.3183    0.5971 O   0  0  0  0  0  0  0  0  0  0  0  0
    1.2340   -2.1038   -0.1013 C   0  0  0  0  0  0  0  0  0  0  0  0
    0.3121   -0.9381   -0.4879 C   0  0  0  0  0  0  0  0  0  0  0  0
    0.3210   -0.7830   -1.5693 H   0  0  0  0  0  0  0  0  0  0  0  0
    0.8467    0.3127    0.1837 C   0  0  0  0  0  0  0  0  0  0  0  0
    1.7352    0.9676   -0.3112 O   0  0  0  0  0  0  0  0  0  0  0  0
    0.3079    0.5234    1.3656 O   0  0  0  0  0  0  0  0  0  0  0  0
    0.8602    1.5733    2.1832 C   0  0  0  0  0  0  0  0  0  0  0  0
    1.9420    1.0082    3.0883 C   0  0  0  0  0  0  0  0  0  0  0  0
   -1.3839   -1.3400    0.0476 S   0  0  0  0  0  0  0  0  0  0  0  0
   -2.2327    0.6051    0.0331 P   0  0  0  0  0  0  0  0  0  0  0  0
   -1.3680    1.9228   -1.1316 S   0  0  0  0  0  0  0  0  0  0  0  0
   -3.7580    0.2934   -0.3326 O   0  0  0  0  0  0  0  0  0  0  0  0
   -4.1345   -0.1531   -1.6408 C   0  0  0  0  0  0  0  0  0  0  0  0
   -2.3966    1.1050    1.5212 O   0  0  0  0  0  0  0  0  0  0  0  0
   -3.0482    0.3011    2.5281 C   0  0  0  0  0  0  0  0  0  0  0  0
    3.7114    0.8141   -1.9123 H   0  0  0  0  0  0  0  0  0  0  0  0
    5.1672    0.5010   -2.8730 H   0  0  0  0  0  0  0  0  0  0  0  0
    3.5695    0.0730   -3.5081 H   0  0  0  0  0  0  0  0  0  0  0  0
    4.9590   -1.2154   -1.0977 H   0  0  0  0  0  0  0  0  0  0  0  0
    4.6817   -1.9846   -2.6946 H   0  0  0  0  0  0  0  0  0  0  0  0
    1.0902   -2.3525    0.9506 H   0  0  0  0  0  0  0  0  0  0  0  0
    1.0106   -2.9652   -0.7288 H   0  0  0  0  0  0  0  0  0  0  0  0
    1.2582    2.3483    1.5219 H   0  0  0  0  0  0  0  0  0  0  0  0
    0.0132    1.9625    2.7491 H   0  0  0  0  0  0  0  0  0  0  0  0
    1.5248    0.2526    3.7477 H   0  0  0  0  0  0  0  0  0  0  0  0
    2.7296    0.5546    2.4881 H   0  0  0  0  0  0  0  0  0  0  0  0
    2.3666    1.8104    3.6823 H   0  0  0  0  0  0  0  0  0  0  0  0
   -3.8246   -1.1884   -1.7810 H   0  0  0  0  0  0  0  0  0  0  0  0
   -3.6755    0.4817   -2.4003 H   0  0  0  0  0  0  0  0  0  0  0  0
   -5.2174   -0.0673   -1.6784 H   0  0  0  0  0  0  0  0  0  0  0  0
   -2.5414   -0.6594    2.6192 H   0  0  0  0  0  0  0  0  0  0  0  0
   -4.0924    0.1510    2.2623 H   0  0  0  0  0  0  0  0  0  0  0  0
   -2.9616    0.8729    3.4481 H   0  0  0  0  0  0  0  0  0  0  0  0
  1  2  1  0  0  0  0
  2  3  1  0  0  0  0
  3  4  4  0  0  0  0
  4  5  2  0  0  0  0
  4  6  1  0  0  0  0
  6  7  1  0  0  0  0
  7  8  1  0  0  0  0
  7  9  1  0  0  0  0
  9 10  2  0  0  0  0
  9 11  1  0  0  0  0
 11 12  1  0  0  0  0
 12 13  1  0  0  0  0
  7 14  1  0  0  0  0
 14 15  1  0  0  0  0
 15 16  2  0  0  0  0
 15 17  2  0  0  0  0
 17 18  1  0  0  0  0
 15 19  2  0  0  0  0
 19 20  1  0  0  0  0
  1 21  1  0  0  0  0
  1 22  1  0  0  0  0
  1 23  1  0  0  0  0
  2 24  1  0  0  0  0
  2 25  1  0  0  0  0
  6 26  1  0  0  0  0
  6 27  1  0  0  0  0
 12 28  1  0  0  0  0
 12 29  1  0  0  0  0
 13 30  1  0  0  0  0
 13 31  1  0  0  0  0
 13 32  1  0  0  0  0
 18 33  1  0  0  0  0
 18 34  1  0  0  0  0
 18 35  1  0  0  0  0
 20 36  1  0  0  0  0
 20 37  1  0  0  0  0
 20 38  1  0  0  0  0
M  END
