 xtb: 6.7.1 (edcfbbe)
          04032520443D

 10  9  0     0  0            999 V2000
   -1.8442   -0.8435    0.4577 C   0  0  0  0  0  0  0  0  0  0  0  0
   -0.9005    0.4172   -0.4696 S   0  0  0  0  0  0  0  0  0  0  0  0
    0.8995    0.4149    0.4711 S   0  0  0  0  0  0  0  0  0  0  0  0
    1.8463   -0.8398   -0.4609 C   0  0  0  0  0  0  0  0  0  0  0  0
   -2.8497   -0.8115    0.0545 H   0  0  0  0  0  0  0  0  0  0  0  0
   -1.8440   -0.5810    1.5099 H   0  0  0  0  0  0  0  0  0  0  0  0
   -1.4009   -1.8200    0.2954 H   0  0  0  0  0  0  0  0  0  0  0  0
    2.8461   -0.8205   -0.0433 H   0  0  0  0  0  0  0  0  0  0  0  0
    1.8630   -0.5625   -1.5092 H   0  0  0  0  0  0  0  0  0  0  0  0
    1.3942   -1.8153   -0.3184 H   0  0  0  0  0  0  0  0  0  0  0  0
  1  2  1  0  0  0  0
  2  3  1  0  0  0  0
  3  4  1  0  0  0  0
  1  5  1  0  0  0  0
  1  6  1  0  0  0  0
  1  7  1  0  0  0  0
  4  8  1  0  0  0  0
  4  9  1  0  0  0  0
  4 10  1  0  0  0  0
M  END
