 xtb: 6.7.1 (edcfbbe)
          04092509483D

 38 37  0     0  0            999 V2000
    2.0766   -3.1965   -2.7875 C   0  0  0  0  0  0  0  0  0  0  0  0
    3.1446   -2.9106   -1.7438 C   0  0  0  0  0  0  0  0  0  0  0  0
    2.8869   -1.6551   -1.0864 O   0  0  0  0  0  0  0  0  0  0  0  0
    2.1330   -1.6535   -0.0052 C   0  0  0  0  0  0  0  0  0  0  0  0
    1.6808   -2.6427    0.5258 O   0  0  0  0  0  0  0  0  0  0  0  0
    1.8810   -0.2399    0.4852 C   0  0  0  0  0  0  0  0  0  0  0  0
    1.0089    0.4973   -0.5302 C   0  0  0  0  0  0  0  0  0  0  0  0
    1.5720    0.6547   -1.4559 H   0  0  0  0  0  0  0  0  0  0  0  0
    0.5347    1.8528   -0.0290 C   0  0  0  0  0  0  0  0  0  0  0  0
   -0.5747    2.2866   -0.2580 O   0  0  0  0  0  0  0  0  0  0  0  0
    1.4796    2.4642    0.6345 O   0  0  0  0  0  0  0  0  0  0  0  0
    1.2369    3.7913    1.1467 C   0  0  0  0  0  0  0  0  0  0  0  0
    1.6028    4.8394    0.1084 C   0  0  0  0  0  0  0  0  0  0  0  0
   -0.4373   -0.4758   -1.0772 S   0  0  0  0  0  0  0  0  0  0  0  0
   -1.8121   -0.1625    0.5063 P   0  0  0  0  0  0  0  0  0  0  0  0
   -1.1393    0.3288    2.2761 S   0  0  0  0  0  0  0  0  0  0  0  0
   -2.9620    0.8010    0.0182 O   0  0  0  0  0  0  0  0  0  0  0  0
   -3.6107    0.6660   -1.2611 C   0  0  0  0  0  0  0  0  0  0  0  0
   -2.6076   -1.5589    0.4705 O   0  0  0  0  0  0  0  0  0  0  0  0
   -2.0414   -2.7838    0.9445 C   0  0  0  0  0  0  0  0  0  0  0  0
    2.3073   -4.1294   -3.2909 H   0  0  0  0  0  0  0  0  0  0  0  0
    1.1017   -3.2801   -2.3125 H   0  0  0  0  0  0  0  0  0  0  0  0
    2.0392   -2.3932   -3.5176 H   0  0  0  0  0  0  0  0  0  0  0  0
    4.1262   -2.7866   -2.2016 H   0  0  0  0  0  0  0  0  0  0  0  0
    3.1730   -3.7003   -0.9878 H   0  0  0  0  0  0  0  0  0  0  0  0
    2.8272    0.2927    0.5805 H   0  0  0  0  0  0  0  0  0  0  0  0
    1.3867   -0.2885    1.4569 H   0  0  0  0  0  0  0  0  0  0  0  0
    0.1864    3.8686    1.4399 H   0  0  0  0  0  0  0  0  0  0  0  0
    1.8792    3.8592    2.0251 H   0  0  0  0  0  0  0  0  0  0  0  0
    1.5045    5.8264    0.5479 H   0  0  0  0  0  0  0  0  0  0  0  0
    2.6283    4.6951   -0.2206 H   0  0  0  0  0  0  0  0  0  0  0  0
    0.9392    4.7678   -0.7502 H   0  0  0  0  0  0  0  0  0  0  0  0
   -4.3683    1.4450   -1.2750 H   0  0  0  0  0  0  0  0  0  0  0  0
   -4.0634   -0.3201   -1.3489 H   0  0  0  0  0  0  0  0  0  0  0  0
   -2.8842    0.8233   -2.0580 H   0  0  0  0  0  0  0  0  0  0  0  0
   -1.0986   -2.9974    0.4393 H   0  0  0  0  0  0  0  0  0  0  0  0
   -2.7779   -3.5512    0.7185 H   0  0  0  0  0  0  0  0  0  0  0  0
   -1.8679   -2.7237    2.0192 H   0  0  0  0  0  0  0  0  0  0  0  0
  1  2  1  0  0  0  0
  2  3  1  0  0  0  0
  3  4  1  0  0  0  0
  4  5  2  0  0  0  0
  4  6  1  0  0  0  0
  6  7  1  0  0  0  0
  7  8  1  0  0  0  0
  7  9  1  0  0  0  0
  9 10  2  0  0  0  0
  9 11  4  0  0  0  0
 11 12  1  0  0  0  0
 12 13  1  0  0  0  0
  7 14  1  0  0  0  0
 14 15  1  0  0  0  0
 15 16  2  0  0  0  0
 15 17  2  0  0  0  0
 17 18  1  0  0  0  0
 15 19  1  0  0  0  0
 19 20  1  0  0  0  0
  1 21  1  0  0  0  0
  1 22  1  0  0  0  0
  1 23  1  0  0  0  0
  2 24  1  0  0  0  0
  2 25  1  0  0  0  0
  6 26  1  0  0  0  0
  6 27  1  0  0  0  0
 12 28  1  0  0  0  0
 12 29  1  0  0  0  0
 13 30  1  0  0  0  0
 13 31  1  0  0  0  0
 13 32  1  0  0  0  0
 18 33  1  0  0  0  0
 18 34  1  0  0  0  0
 18 35  1  0  0  0  0
 20 36  1  0  0  0  0
 20 37  1  0  0  0  0
 20 38  1  0  0  0  0
M  END
