 xtb: 6.7.1 (edcfbbe)
          04092507313D

 38 37  0     0  0            999 V2000
    4.2810   -3.8203   -1.0385 C   0  0  0  0  0  0  0  0  0  0  0  0
    2.7622   -3.7857   -0.9777 C   0  0  0  0  0  0  0  0  0  0  0  0
    2.2989   -2.6063   -0.2908 O   0  0  0  0  0  0  0  0  0  0  0  0
    2.1725   -1.4902   -0.9791 C   0  0  0  0  0  0  0  0  0  0  0  0
    2.3734   -1.3837   -2.1684 O   0  0  0  0  0  0  0  0  0  0  0  0
    1.7305   -0.3417   -0.0918 C   0  0  0  0  0  0  0  0  0  0  0  0
    0.7460    0.5450   -0.8422 C   0  0  0  0  0  0  0  0  0  0  0  0
    1.1629    0.7823   -1.8282 H   0  0  0  0  0  0  0  0  0  0  0  0
    0.4195    1.8464   -0.1351 C   0  0  0  0  0  0  0  0  0  0  0  0
   -0.7054    2.3041   -0.1043 O   0  0  0  0  0  0  0  0  0  0  0  0
    1.4776    2.3997    0.3910 O   0  0  0  0  0  0  0  0  0  0  0  0
    1.3149    3.6516    1.0917 C   0  0  0  0  0  0  0  0  0  0  0  0
    1.3254    4.8245    0.1259 C   0  0  0  0  0  0  0  0  0  0  0  0
   -0.8183   -0.3147   -1.2104 S   0  0  0  0  0  0  0  0  0  0  0  0
   -1.8715   -0.0049    0.6161 P   0  0  0  0  0  0  0  0  0  0  0  0
   -0.8515    0.2807    2.2626 S   0  0  0  0  0  0  0  0  0  0  0  0
   -3.0469    1.0283    0.4186 O   0  0  0  0  0  0  0  0  0  0  0  0
   -3.9130    1.0183   -0.7321 C   0  0  0  0  0  0  0  0  0  0  0  0
   -2.7323   -1.3625    0.6594 O   0  0  0  0  0  0  0  0  0  0  0  0
   -2.1124   -2.6248    0.9175 C   0  0  0  0  0  0  0  0  0  0  0  0
    4.6002   -4.7521   -1.4935 H   0  0  0  0  0  0  0  0  0  0  0  0
    4.6505   -2.9909   -1.6372 H   0  0  0  0  0  0  0  0  0  0  0  0
    4.6974   -3.7488   -0.0375 H   0  0  0  0  0  0  0  0  0  0  0  0
    2.3690   -4.6143   -0.3889 H   0  0  0  0  0  0  0  0  0  0  0  0
    2.3338   -3.7923   -1.9840 H   0  0  0  0  0  0  0  0  0  0  0  0
    2.6110    0.2531    0.1623 H   0  0  0  0  0  0  0  0  0  0  0  0
    1.3007   -0.7333    0.8313 H   0  0  0  0  0  0  0  0  0  0  0  0
    0.3776    3.6115    1.6540 H   0  0  0  0  0  0  0  0  0  0  0  0
    2.1640    3.6843    1.7739 H   0  0  0  0  0  0  0  0  0  0  0  0
    1.2750    5.7498    0.6901 H   0  0  0  0  0  0  0  0  0  0  0  0
    2.2365    4.8142   -0.4660 H   0  0  0  0  0  0  0  0  0  0  0  0
    0.4667    4.7711   -0.5395 H   0  0  0  0  0  0  0  0  0  0  0  0
   -3.3322    1.2268   -1.6304 H   0  0  0  0  0  0  0  0  0  0  0  0
   -4.6320    1.8124   -0.5488 H   0  0  0  0  0  0  0  0  0  0  0  0
   -4.4095    0.0533   -0.8176 H   0  0  0  0  0  0  0  0  0  0  0  0
   -1.4868   -2.5591    1.8093 H   0  0  0  0  0  0  0  0  0  0  0  0
   -1.5090   -2.9252    0.0606 H   0  0  0  0  0  0  0  0  0  0  0  0
   -2.9282   -3.3252    1.0763 H   0  0  0  0  0  0  0  0  0  0  0  0
  1  2  1  0  0  0  0
  2  3  1  0  0  0  0
  3  4  1  0  0  0  0
  4  5  2  0  0  0  0
  4  6  1  0  0  0  0
  6  7  1  0  0  0  0
  7  8  1  0  0  0  0
  7  9  1  0  0  0  0
  9 10  2  0  0  0  0
  9 11  4  0  0  0  0
 11 12  1  0  0  0  0
 12 13  1  0  0  0  0
  7 14  1  0  0  0  0
 14 15  1  0  0  0  0
 15 16  2  0  0  0  0
 15 17  2  0  0  0  0
 17 18  1  0  0  0  0
 15 19  1  0  0  0  0
 19 20  1  0  0  0  0
  1 21  1  0  0  0  0
  1 22  1  0  0  0  0
  1 23  1  0  0  0  0
  2 24  1  0  0  0  0
  2 25  1  0  0  0  0
  6 26  1  0  0  0  0
  6 27  1  0  0  0  0
 12 28  1  0  0  0  0
 12 29  1  0  0  0  0
 13 30  1  0  0  0  0
 13 31  1  0  0  0  0
 13 32  1  0  0  0  0
 18 33  1  0  0  0  0
 18 34  1  0  0  0  0
 18 35  1  0  0  0  0
 20 36  1  0  0  0  0
 20 37  1  0  0  0  0
 20 38  1  0  0  0  0
M  END
