 xtb: 6.7.1 (edcfbbe)
          04092505203D

 41 40  0     0  0            999 V2000
    4.2407    2.0296   -1.0574 C   0  0  0  0  0  0  0  0  0  0  0  0
    4.6419    0.6149   -0.6943 C   0  0  0  0  0  0  0  0  0  0  0  0
    3.5197   -0.2881   -0.6769 O   0  0  0  0  0  0  0  0  0  0  0  0
    2.3401   -0.1709    0.3823 P   0  0  0  0  0  0  0  0  0  0  0  0
    2.8599    0.2885    2.2092 S   0  0  0  0  0  0  0  0  0  0  0  0
    1.6822   -1.6012    0.2974 O   0  0  0  0  0  0  0  0  0  0  0  0
    1.4456   -2.2960   -0.9541 C   0  0  0  0  0  0  0  0  0  0  0  0
    0.6402   -3.5377   -0.6396 C   0  0  0  0  0  0  0  0  0  0  0  0
    0.9595    1.1680   -0.5396 S   0  0  0  0  0  0  0  0  0  0  0  0
    0.0278    1.5581    0.9604 C   0  0  0  0  0  0  0  0  0  0  0  0
   -1.0237    0.1968    1.5408 S   0  0  0  0  0  0  0  0  0  0  0  0
   -2.3390    0.0724   -0.1222 P   0  0  0  0  0  0  0  0  0  0  0  0
   -1.8031   -0.8919   -1.7453 S   0  0  0  0  0  0  0  0  0  0  0  0
   -2.7110    1.5976   -0.3044 O   0  0  0  0  0  0  0  0  0  0  0  0
   -2.9510    2.2222   -1.5865 C   0  0  0  0  0  0  0  0  0  0  0  0
   -1.8837    3.2628   -1.8615 C   0  0  0  0  0  0  0  0  0  0  0  0
   -3.6798   -0.4963    0.5196 O   0  0  0  0  0  0  0  0  0  0  0  0
   -3.9505   -1.9039    0.6093 C   0  0  0  0  0  0  0  0  0  0  0  0
   -3.1378   -2.5602    1.7075 C   0  0  0  0  0  0  0  0  0  0  0  0
    3.6418    2.4646   -0.2589 H   0  0  0  0  0  0  0  0  0  0  0  0
    5.1347    2.6298   -1.1923 H   0  0  0  0  0  0  0  0  0  0  0  0
    3.6598    2.0348   -1.9764 H   0  0  0  0  0  0  0  0  0  0  0  0
    5.1174    0.5899    0.2909 H   0  0  0  0  0  0  0  0  0  0  0  0
    5.3085    0.1806   -1.4408 H   0  0  0  0  0  0  0  0  0  0  0  0
    0.8994   -1.6314   -1.6303 H   0  0  0  0  0  0  0  0  0  0  0  0
    2.4143   -2.5414   -1.3925 H   0  0  0  0  0  0  0  0  0  0  0  0
    1.1556   -4.1404    0.1025 H   0  0  0  0  0  0  0  0  0  0  0  0
   -0.3371   -3.2599   -0.2535 H   0  0  0  0  0  0  0  0  0  0  0  0
    0.5059   -4.1115   -1.5505 H   0  0  0  0  0  0  0  0  0  0  0  0
   -0.5865    2.4281    0.7448 H   0  0  0  0  0  0  0  0  0  0  0  0
    0.7282    1.7548    1.7740 H   0  0  0  0  0  0  0  0  0  0  0  0
   -2.9541    1.4518   -2.3641 H   0  0  0  0  0  0  0  0  0  0  0  0
   -3.9419    2.6727   -1.5119 H   0  0  0  0  0  0  0  0  0  0  0  0
   -0.9039    2.7910   -1.9221 H   0  0  0  0  0  0  0  0  0  0  0  0
   -2.1004    3.7491   -2.8070 H   0  0  0  0  0  0  0  0  0  0  0  0
   -1.8712    4.0092   -1.0720 H   0  0  0  0  0  0  0  0  0  0  0  0
   -5.0204   -1.9585    0.8141 H   0  0  0  0  0  0  0  0  0  0  0  0
   -3.7345   -2.3617   -0.3625 H   0  0  0  0  0  0  0  0  0  0  0  0
   -3.3270   -2.0729    2.6604 H   0  0  0  0  0  0  0  0  0  0  0  0
   -3.4040   -3.6099    1.7781 H   0  0  0  0  0  0  0  0  0  0  0  0
   -2.0734   -2.4774    1.4860 H   0  0  0  0  0  0  0  0  0  0  0  0
  1  2  1  0  0  0  0
  2  3  1  0  0  0  0
  3  4  2  0  0  0  0
  4  5  2  0  0  0  0
  4  6  2  0  0  0  0
  6  7  1  0  0  0  0
  7  8  1  0  0  0  0
  4  9  1  0  0  0  0
  9 10  1  0  0  0  0
 10 11  1  0  0  0  0
 11 12  1  0  0  0  0
 12 13  2  0  0  0  0
 12 14  2  0  0  0  0
 14 15  1  0  0  0  0
 15 16  1  0  0  0  0
 12 17  2  0  0  0  0
 17 18  1  0  0  0  0
 18 19  1  0  0  0  0
  1 20  1  0  0  0  0
  1 21  1  0  0  0  0
  1 22  1  0  0  0  0
  2 23  1  0  0  0  0
  2 24  1  0  0  0  0
  7 25  1  0  0  0  0
  7 26  1  0  0  0  0
  8 27  1  0  0  0  0
  8 28  1  0  0  0  0
  8 29  1  0  0  0  0
 10 30  1  0  0  0  0
 10 31  1  0  0  0  0
 15 32  1  0  0  0  0
 15 33  1  0  0  0  0
 16 34  1  0  0  0  0
 16 35  1  0  0  0  0
 16 36  1  0  0  0  0
 18 37  1  0  0  0  0
 18 38  1  0  0  0  0
 19 39  1  0  0  0  0
 19 40  1  0  0  0  0
 19 41  1  0  0  0  0
M  END
