 xtb: 6.7.1 (edcfbbe)
          04092505213D

 41 40  0     0  0            999 V2000
    1.1497    2.0227    2.3605 C   0  0  0  0  0  0  0  0  0  0  0  0
    2.6453    1.7910    2.2830 C   0  0  0  0  0  0  0  0  0  0  0  0
    3.0639    1.3803    0.9681 O   0  0  0  0  0  0  0  0  0  0  0  0
    2.7789   -0.0682    0.3984 P   0  0  0  0  0  0  0  0  0  0  0  0
    2.8385   -1.5404    1.6983 S   0  0  0  0  0  0  0  0  0  0  0  0
    3.9346   -0.0433   -0.6846 O   0  0  0  0  0  0  0  0  0  0  0  0
    4.4530   -1.2434   -1.2838 C   0  0  0  0  0  0  0  0  0  0  0  0
    3.4289   -1.9544   -2.1465 C   0  0  0  0  0  0  0  0  0  0  0  0
    0.9867    0.1102   -0.7548 S   0  0  0  0  0  0  0  0  0  0  0  0
   -0.0286   -1.1724    0.0339 C   0  0  0  0  0  0  0  0  0  0  0  0
   -1.3742   -0.4912    1.0257 S   0  0  0  0  0  0  0  0  0  0  0  0
   -2.6051    0.0625   -0.6270 P   0  0  0  0  0  0  0  0  0  0  0  0
   -2.5966   -1.1732   -2.1433 S   0  0  0  0  0  0  0  0  0  0  0  0
   -2.1262    1.4826   -1.1102 O   0  0  0  0  0  0  0  0  0  0  0  0
   -2.0130    2.6312   -0.2322 C   0  0  0  0  0  0  0  0  0  0  0  0
   -0.9339    3.5367   -0.7896 C   0  0  0  0  0  0  0  0  0  0  0  0
   -3.9916    0.4177    0.0650 O   0  0  0  0  0  0  0  0  0  0  0  0
   -4.7047   -0.4262    0.9893 C   0  0  0  0  0  0  0  0  0  0  0  0
   -4.9541   -1.8159    0.4424 C   0  0  0  0  0  0  0  0  0  0  0  0
    0.6160    1.0798    2.2427 H   0  0  0  0  0  0  0  0  0  0  0  0
    0.9026    2.4424    3.3304 H   0  0  0  0  0  0  0  0  0  0  0  0
    0.8367    2.7114    1.5802 H   0  0  0  0  0  0  0  0  0  0  0  0
    2.9564    1.0277    3.0036 H   0  0  0  0  0  0  0  0  0  0  0  0
    3.2034    2.7122    2.4570 H   0  0  0  0  0  0  0  0  0  0  0  0
    5.2999   -0.8930   -1.8754 H   0  0  0  0  0  0  0  0  0  0  0  0
    4.8068   -1.9046   -0.4861 H   0  0  0  0  0  0  0  0  0  0  0  0
    3.9105   -2.7716   -2.6742 H   0  0  0  0  0  0  0  0  0  0  0  0
    2.6315   -2.3614   -1.5252 H   0  0  0  0  0  0  0  0  0  0  0  0
    2.9959   -1.2661   -2.8685 H   0  0  0  0  0  0  0  0  0  0  0  0
    0.5987   -1.7644    0.7048 H   0  0  0  0  0  0  0  0  0  0  0  0
   -0.4630   -1.7841   -0.7580 H   0  0  0  0  0  0  0  0  0  0  0  0
   -2.9852    3.1270   -0.2141 H   0  0  0  0  0  0  0  0  0  0  0  0
   -1.7660    2.2823    0.7753 H   0  0  0  0  0  0  0  0  0  0  0  0
   -0.8339    4.4097   -0.1524 H   0  0  0  0  0  0  0  0  0  0  0  0
    0.0146    3.0062   -0.8360 H   0  0  0  0  0  0  0  0  0  0  0  0
   -1.1974    3.8528   -1.7947 H   0  0  0  0  0  0  0  0  0  0  0  0
   -4.1307   -0.4733    1.9188 H   0  0  0  0  0  0  0  0  0  0  0  0
   -5.6399    0.1110    1.1562 H   0  0  0  0  0  0  0  0  0  0  0  0
   -5.4623   -1.7608   -0.5176 H   0  0  0  0  0  0  0  0  0  0  0  0
   -4.0099   -2.3398    0.2999 H   0  0  0  0  0  0  0  0  0  0  0  0
   -5.5664   -2.3751    1.1424 H   0  0  0  0  0  0  0  0  0  0  0  0
  1  2  1  0  0  0  0
  2  3  1  0  0  0  0
  3  4  2  0  0  0  0
  4  5  2  0  0  0  0
  4  6  2  0  0  0  0
  6  7  1  0  0  0  0
  7  8  1  0  0  0  0
  4  9  1  0  0  0  0
  9 10  1  0  0  0  0
 10 11  1  0  0  0  0
 11 12  1  0  0  0  0
 12 13  2  0  0  0  0
 12 14  2  0  0  0  0
 14 15  1  0  0  0  0
 15 16  1  0  0  0  0
 12 17  2  0  0  0  0
 17 18  1  0  0  0  0
 18 19  1  0  0  0  0
  1 20  1  0  0  0  0
  1 21  1  0  0  0  0
  1 22  1  0  0  0  0
  2 23  1  0  0  0  0
  2 24  1  0  0  0  0
  7 25  1  0  0  0  0
  7 26  1  0  0  0  0
  8 27  1  0  0  0  0
  8 28  1  0  0  0  0
  8 29  1  0  0  0  0
 10 30  1  0  0  0  0
 10 31  1  0  0  0  0
 15 32  1  0  0  0  0
 15 33  1  0  0  0  0
 16 34  1  0  0  0  0
 16 35  1  0  0  0  0
 16 36  1  0  0  0  0
 18 37  1  0  0  0  0
 18 38  1  0  0  0  0
 19 39  1  0  0  0  0
 19 40  1  0  0  0  0
 19 41  1  0  0  0  0
M  END
