 xtb: 6.7.1 (edcfbbe)
          04092509473D

 38 37  0     0  0            999 V2000
    4.2933    0.0688   -2.6329 C   0  0  0  0  0  0  0  0  0  0  0  0
    4.2871   -1.3575   -2.1080 C   0  0  0  0  0  0  0  0  0  0  0  0
    2.9663   -1.7223   -1.6635 O   0  0  0  0  0  0  0  0  0  0  0  0
    2.6811   -1.6562   -0.3805 C   0  0  0  0  0  0  0  0  0  0  0  0
    3.4612   -1.3554    0.4954 O   0  0  0  0  0  0  0  0  0  0  0  0
    1.2297   -2.0247   -0.1230 C   0  0  0  0  0  0  0  0  0  0  0  0
    0.3338   -0.8159   -0.4220 C   0  0  0  0  0  0  0  0  0  0  0  0
    0.3629   -0.5687   -1.4866 H   0  0  0  0  0  0  0  0  0  0  0  0
    0.8557    0.3843    0.3486 C   0  0  0  0  0  0  0  0  0  0  0  0
    1.7335    1.0848   -0.1019 O   0  0  0  0  0  0  0  0  0  0  0  0
    0.3043    0.5222    1.5350 O   0  0  0  0  0  0  0  0  0  0  0  0
    0.8152    1.5591    2.4000 C   0  0  0  0  0  0  0  0  0  0  0  0
    2.0225    1.0730    3.1856 C   0  0  0  0  0  0  0  0  0  0  0  0
   -1.3711   -1.2799    0.0341 S   0  0  0  0  0  0  0  0  0  0  0  0
   -2.3134    0.6136   -0.0789 P   0  0  0  0  0  0  0  0  0  0  0  0
   -1.4930    1.9188   -1.2853 S   0  0  0  0  0  0  0  0  0  0  0  0
   -3.8275    0.2166   -0.4091 O   0  0  0  0  0  0  0  0  0  0  0  0
   -4.2307   -0.2902   -1.6879 C   0  0  0  0  0  0  0  0  0  0  0  0
   -2.4768    1.1700    1.3895 O   0  0  0  0  0  0  0  0  0  0  0  0
   -3.0212    0.3586    2.4519 C   0  0  0  0  0  0  0  0  0  0  0  0
    3.9891    0.7574   -1.8465 H   0  0  0  0  0  0  0  0  0  0  0  0
    5.2931    0.3259   -2.9664 H   0  0  0  0  0  0  0  0  0  0  0  0
    3.6006    0.1663   -3.4642 H   0  0  0  0  0  0  0  0  0  0  0  0
    4.9789   -1.4696   -1.2684 H   0  0  0  0  0  0  0  0  0  0  0  0
    4.5257   -2.0725   -2.8965 H   0  0  0  0  0  0  0  0  0  0  0  0
    1.1197   -2.3119    0.9232 H   0  0  0  0  0  0  0  0  0  0  0  0
    0.9395   -2.8485   -0.7741 H   0  0  0  0  0  0  0  0  0  0  0  0
    1.0739    2.4232    1.7811 H   0  0  0  0  0  0  0  0  0  0  0  0
   -0.0202    1.8033    3.0562 H   0  0  0  0  0  0  0  0  0  0  0  0
    1.7573    0.2200    3.8036 H   0  0  0  0  0  0  0  0  0  0  0  0
    2.8218    0.7800    2.5069 H   0  0  0  0  0  0  0  0  0  0  0  0
    2.3780    1.8783    3.8205 H   0  0  0  0  0  0  0  0  0  0  0  0
   -3.8245   -1.2899   -1.8399 H   0  0  0  0  0  0  0  0  0  0  0  0
   -3.8904    0.3768   -2.4809 H   0  0  0  0  0  0  0  0  0  0  0  0
   -5.3174   -0.3205   -1.6582 H   0  0  0  0  0  0  0  0  0  0  0  0
   -2.4161   -0.5397    2.5743 H   0  0  0  0  0  0  0  0  0  0  0  0
   -4.0506    0.0900    2.2244 H   0  0  0  0  0  0  0  0  0  0  0  0
   -2.9719    0.9820    3.3404 H   0  0  0  0  0  0  0  0  0  0  0  0
  1  2  1  0  0  0  0
  2  3  1  0  0  0  0
  3  4  1  0  0  0  0
  4  5  2  0  0  0  0
  4  6  1  0  0  0  0
  6  7  1  0  0  0  0
  7  8  1  0  0  0  0
  7  9  1  0  0  0  0
  9 10  2  0  0  0  0
  9 11  1  0  0  0  0
 11 12  1  0  0  0  0
 12 13  1  0  0  0  0
  7 14  1  0  0  0  0
 14 15  1  0  0  0  0
 15 16  2  0  0  0  0
 15 17  2  0  0  0  0
 17 18  1  0  0  0  0
 15 19  2  0  0  0  0
 19 20  1  0  0  0  0
  1 21  1  0  0  0  0
  1 22  1  0  0  0  0
  1 23  1  0  0  0  0
  2 24  1  0  0  0  0
  2 25  1  0  0  0  0
  6 26  1  0  0  0  0
  6 27  1  0  0  0  0
 12 28  1  0  0  0  0
 12 29  1  0  0  0  0
 13 30  1  0  0  0  0
 13 31  1  0  0  0  0
 13 32  1  0  0  0  0
 18 33  1  0  0  0  0
 18 34  1  0  0  0  0
 18 35  1  0  0  0  0
 20 36  1  0  0  0  0
 20 37  1  0  0  0  0
 20 38  1  0  0  0  0
M  END
