12
 xtb: 6.7.1 (edcfbbe)
C           -1.28935755088479       -0.56622126294170       -0.00005518465917
C           -1.10349701772160        0.81041860257579       -0.00008104526105
C            0.15439872067902        1.40011289328522       -0.00009492817743
C            1.25381502073698        0.55087367966538       -0.00007056459141
C            1.13482065634452       -0.83313002953411       -0.00003429122857
C           -0.15008865364570       -1.36078467542149       -0.00003424478333
Cl          -0.34168052134564       -3.10327601640865        0.00001633285125
Cl           2.86013737949297        1.25347964070341       -0.00007083361126
Cl          -2.51680662927712        1.84754829060343       -0.00012105535792
H           -2.28032487677776       -1.00125610119964       -0.00005004277359
H            0.27166791860065        2.47615848183128       -0.00011115730270
H            2.00714706512878       -1.47391853144022       -0.00001272594553
