19
 xtb: 6.7.1 (edcfbbe)
C           -2.52965054956573       -0.76290021464549        0.00156258868289
C           -1.22420416794368       -0.01493624396652        0.00059664537919
C           -1.22142369965341        1.38023266178254        0.00054290558026
C           -0.03168237422714        2.10083780319885        0.00002982730969
C            1.17891262040579        1.41838078064876       -0.00015488311562
C            1.23024832882178        0.02144564221505        0.00019558425888
C            0.01273262362230       -0.67971518386905        0.00015784198782
O           -0.03355930158007       -2.06138205760904        0.00042805396645
C            2.57682541993317       -0.65428653586338        0.00192631289256
H           -3.12566297841258       -0.49663947180899       -0.87799601016257
H           -2.39146517321294       -1.84363091807450        0.00057096173102
H           -3.12334370530382       -0.49808470187260        0.88314547733201
H           -2.17499953346444        1.90206281074514        0.00082565277756
H           -0.04827073230449        3.18593522041250       -0.00025049106498
H            2.11504335231483        1.97087118371619       -0.00036029900312
H            0.86682068319071       -2.40954106199188       -0.00567011818856
H            3.14952617931919       -0.36188503134803        0.88800867011384
H            2.54228984206029       -1.74662342789340       -0.00478711297755
H            3.15722676254670       -0.35119238733657       -0.87539727290263
