 xtb: 6.7.1 (edcfbbe)
          04092505203D

 41 40  0     0  0            999 V2000
    3.9185   -1.1639   -2.7186 C   0  0  0  0  0  0  0  0  0  0  0  0
    4.2343   -1.5839   -1.2976 C   0  0  0  0  0  0  0  0  0  0  0  0
    3.0471   -1.7163   -0.4966 O   0  0  0  0  0  0  0  0  0  0  0  0
    2.1645   -0.4636   -0.0618 P   0  0  0  0  0  0  0  0  0  0  0  0
    3.2169    1.1244    0.4154 S   0  0  0  0  0  0  0  0  0  0  0  0
    1.2808   -1.1164    1.0787 O   0  0  0  0  0  0  0  0  0  0  0  0
    1.7018   -1.1570    2.4602 C   0  0  0  0  0  0  0  0  0  0  0  0
    0.9920   -0.0812    3.2584 C   0  0  0  0  0  0  0  0  0  0  0  0
    0.7209   -0.2745   -1.5826 S   0  0  0  0  0  0  0  0  0  0  0  0
    0.2281    1.4320   -1.2150 C   0  0  0  0  0  0  0  0  0  0  0  0
   -0.5056    1.6315    0.4318 S   0  0  0  0  0  0  0  0  0  0  0  0
   -2.1762    0.3870    0.1270 P   0  0  0  0  0  0  0  0  0  0  0  0
   -2.9820    0.3441   -1.6635 S   0  0  0  0  0  0  0  0  0  0  0  0
   -3.1952    0.7882    1.2836 O   0  0  0  0  0  0  0  0  0  0  0  0
   -4.2011    1.8013    1.1089 C   0  0  0  0  0  0  0  0  0  0  0  0
   -3.5996    3.1873    0.9967 C   0  0  0  0  0  0  0  0  0  0  0  0
   -1.6120   -0.9770    0.7009 O   0  0  0  0  0  0  0  0  0  0  0  0
   -2.2414   -2.2504    0.4370 C   0  0  0  0  0  0  0  0  0  0  0  0
   -1.4841   -2.9984   -0.6424 C   0  0  0  0  0  0  0  0  0  0  0  0
    4.8260   -1.1964   -3.3129 H   0  0  0  0  0  0  0  0  0  0  0  0
    3.1765   -1.8290   -3.1535 H   0  0  0  0  0  0  0  0  0  0  0  0
    3.5260   -0.1479   -2.7283 H   0  0  0  0  0  0  0  0  0  0  0  0
    4.8940   -0.8536   -0.8181 H   0  0  0  0  0  0  0  0  0  0  0  0
    4.6872   -2.5756   -1.2606 H   0  0  0  0  0  0  0  0  0  0  0  0
    1.4317   -2.1560    2.8064 H   0  0  0  0  0  0  0  0  0  0  0  0
    2.7872   -1.0309    2.5122 H   0  0  0  0  0  0  0  0  0  0  0  0
    1.3040    0.9053    2.9211 H   0  0  0  0  0  0  0  0  0  0  0  0
   -0.0836   -0.1685    3.1242 H   0  0  0  0  0  0  0  0  0  0  0  0
    1.2366   -0.1928    4.3098 H   0  0  0  0  0  0  0  0  0  0  0  0
   -0.4974    1.7088   -1.9791 H   0  0  0  0  0  0  0  0  0  0  0  0
    1.1016    2.0824   -1.2383 H   0  0  0  0  0  0  0  0  0  0  0  0
   -4.7814    1.5599    0.2125 H   0  0  0  0  0  0  0  0  0  0  0  0
   -4.8283    1.7035    1.9960 H   0  0  0  0  0  0  0  0  0  0  0  0
   -3.0304    3.2726    0.0721 H   0  0  0  0  0  0  0  0  0  0  0  0
   -4.3957    3.9248    0.9892 H   0  0  0  0  0  0  0  0  0  0  0  0
   -2.9349    3.3800    1.8351 H   0  0  0  0  0  0  0  0  0  0  0  0
   -2.2093   -2.7815    1.3897 H   0  0  0  0  0  0  0  0  0  0  0  0
   -3.2821   -2.0861    0.1426 H   0  0  0  0  0  0  0  0  0  0  0  0
   -0.4336   -3.0766   -0.3723 H   0  0  0  0  0  0  0  0  0  0  0  0
   -1.9047   -3.9926   -0.7540 H   0  0  0  0  0  0  0  0  0  0  0  0
   -1.5592   -2.4695   -1.5904 H   0  0  0  0  0  0  0  0  0  0  0  0
  1  2  1  0  0  0  0
  2  3  1  0  0  0  0
  3  4  2  0  0  0  0
  4  5  2  0  0  0  0
  4  6  2  0  0  0  0
  6  7  1  0  0  0  0
  7  8  1  0  0  0  0
  4  9  1  0  0  0  0
  9 10  1  0  0  0  0
 10 11  1  0  0  0  0
 11 12  1  0  0  0  0
 12 13  2  0  0  0  0
 12 14  2  0  0  0  0
 14 15  1  0  0  0  0
 15 16  1  0  0  0  0
 12 17  2  0  0  0  0
 17 18  1  0  0  0  0
 18 19  1  0  0  0  0
  1 20  1  0  0  0  0
  1 21  1  0  0  0  0
  1 22  1  0  0  0  0
  2 23  1  0  0  0  0
  2 24  1  0  0  0  0
  7 25  1  0  0  0  0
  7 26  1  0  0  0  0
  8 27  1  0  0  0  0
  8 28  1  0  0  0  0
  8 29  1  0  0  0  0
 10 30  1  0  0  0  0
 10 31  1  0  0  0  0
 15 32  1  0  0  0  0
 15 33  1  0  0  0  0
 16 34  1  0  0  0  0
 16 35  1  0  0  0  0
 16 36  1  0  0  0  0
 18 37  1  0  0  0  0
 18 38  1  0  0  0  0
 19 39  1  0  0  0  0
 19 40  1  0  0  0  0
 19 41  1  0  0  0  0
M  END
