 xtb: 6.7.1 (edcfbbe)
          04092505213D

 41 40  0     0  0            999 V2000
    5.4338    1.4599   -1.7917 C   0  0  0  0  0  0  0  0  0  0  0  0
    4.1137    0.7166   -1.8365 C   0  0  0  0  0  0  0  0  0  0  0  0
    3.8695    0.1604   -0.5295 O   0  0  0  0  0  0  0  0  0  0  0  0
    2.4073   -0.0831    0.0118 P   0  0  0  0  0  0  0  0  0  0  0  0
    1.1623    1.4028   -0.3315 S   0  0  0  0  0  0  0  0  0  0  0  0
    2.8497   -0.3768    1.4990 O   0  0  0  0  0  0  0  0  0  0  0  0
    2.0458   -1.0258    2.5005 C   0  0  0  0  0  0  0  0  0  0  0  0
    1.1079   -0.0515    3.1860 C   0  0  0  0  0  0  0  0  0  0  0  0
    1.8356   -1.9544   -0.8264 S   0  0  0  0  0  0  0  0  0  0  0  0
    0.0779   -1.6616   -1.1225 C   0  0  0  0  0  0  0  0  0  0  0  0
   -0.9011   -1.6217    0.4237 S   0  0  0  0  0  0  0  0  0  0  0  0
   -2.1194    0.0687    0.0675 P   0  0  0  0  0  0  0  0  0  0  0  0
   -2.1617    0.7323   -1.7808 S   0  0  0  0  0  0  0  0  0  0  0  0
   -1.6607    1.0782    1.1948 O   0  0  0  0  0  0  0  0  0  0  0  0
   -1.8362    2.5012    1.0652 C   0  0  0  0  0  0  0  0  0  0  0  0
   -3.2994    2.8849    1.1097 C   0  0  0  0  0  0  0  0  0  0  0  0
   -3.5100   -0.3964    0.6876 O   0  0  0  0  0  0  0  0  0  0  0  0
   -4.3239   -1.4312    0.1056 C   0  0  0  0  0  0  0  0  0  0  0  0
   -5.3185   -0.8592   -0.8865 C   0  0  0  0  0  0  0  0  0  0  0  0
    6.2275    0.7832   -1.4893 H   0  0  0  0  0  0  0  0  0  0  0  0
    5.6529    1.8578   -2.7771 H   0  0  0  0  0  0  0  0  0  0  0  0
    5.3777    2.2772   -1.0781 H   0  0  0  0  0  0  0  0  0  0  0  0
    4.1466   -0.1098   -2.5513 H   0  0  0  0  0  0  0  0  0  0  0  0
    3.2880    1.3883   -2.0989 H   0  0  0  0  0  0  0  0  0  0  0  0
    1.4882   -1.8507    2.0442 H   0  0  0  0  0  0  0  0  0  0  0  0
    2.7793   -1.4267    3.2027 H   0  0  0  0  0  0  0  0  0  0  0  0
    0.3721    0.3331    2.4819 H   0  0  0  0  0  0  0  0  0  0  0  0
    0.5866   -0.5623    3.9892 H   0  0  0  0  0  0  0  0  0  0  0  0
    1.6694    0.7856    3.5923 H   0  0  0  0  0  0  0  0  0  0  0  0
   -0.2608   -2.4997   -1.7260 H   0  0  0  0  0  0  0  0  0  0  0  0
   -0.0676   -0.7127   -1.6457 H   0  0  0  0  0  0  0  0  0  0  0  0
   -1.2776    2.9127    1.9070 H   0  0  0  0  0  0  0  0  0  0  0  0
   -1.3689    2.8244    0.1287 H   0  0  0  0  0  0  0  0  0  0  0  0
   -3.7593    2.4982    2.0153 H   0  0  0  0  0  0  0  0  0  0  0  0
   -3.3900    3.9662    1.0860 H   0  0  0  0  0  0  0  0  0  0  0  0
   -3.8139    2.4657    0.2456 H   0  0  0  0  0  0  0  0  0  0  0  0
   -3.6768   -2.1739   -0.3709 H   0  0  0  0  0  0  0  0  0  0  0  0
   -4.8315   -1.8870    0.9579 H   0  0  0  0  0  0  0  0  0  0  0  0
   -4.7968   -0.3946   -1.7202 H   0  0  0  0  0  0  0  0  0  0  0  0
   -5.9468   -1.6595   -1.2639 H   0  0  0  0  0  0  0  0  0  0  0  0
   -5.9410   -0.1116   -0.4029 H   0  0  0  0  0  0  0  0  0  0  0  0
  1  2  1  0  0  0  0
  2  3  1  0  0  0  0
  3  4  2  0  0  0  0
  4  5  2  0  0  0  0
  4  6  2  0  0  0  0
  6  7  1  0  0  0  0
  7  8  1  0  0  0  0
  4  9  1  0  0  0  0
  9 10  1  0  0  0  0
 10 11  1  0  0  0  0
 11 12  1  0  0  0  0
 12 13  2  0  0  0  0
 12 14  2  0  0  0  0
 14 15  1  0  0  0  0
 15 16  1  0  0  0  0
 12 17  2  0  0  0  0
 17 18  1  0  0  0  0
 18 19  1  0  0  0  0
  1 20  1  0  0  0  0
  1 21  1  0  0  0  0
  1 22  1  0  0  0  0
  2 23  1  0  0  0  0
  2 24  1  0  0  0  0
  7 25  1  0  0  0  0
  7 26  1  0  0  0  0
  8 27  1  0  0  0  0
  8 28  1  0  0  0  0
  8 29  1  0  0  0  0
 10 30  1  0  0  0  0
 10 31  1  0  0  0  0
 15 32  1  0  0  0  0
 15 33  1  0  0  0  0
 16 34  1  0  0  0  0
 16 35  1  0  0  0  0
 16 36  1  0  0  0  0
 18 37  1  0  0  0  0
 18 38  1  0  0  0  0
 19 39  1  0  0  0  0
 19 40  1  0  0  0  0
 19 41  1  0  0  0  0
M  END
