 xtb: 6.7.1 (edcfbbe)
          04092505203D

 41 40  0     0  0            999 V2000
    4.4922    1.8143   -0.7162 C   0  0  0  0  0  0  0  0  0  0  0  0
    4.5357    0.3121   -0.9085 C   0  0  0  0  0  0  0  0  0  0  0  0
    3.2234   -0.2486   -1.0933 O   0  0  0  0  0  0  0  0  0  0  0  0
    2.1479   -0.3007    0.0728 P   0  0  0  0  0  0  0  0  0  0  0  0
    2.8639   -0.7002    1.8562 S   0  0  0  0  0  0  0  0  0  0  0  0
    1.0851   -1.3196   -0.5034 O   0  0  0  0  0  0  0  0  0  0  0  0
    1.1130   -2.7313   -0.2171 C   0  0  0  0  0  0  0  0  0  0  0  0
    2.3403   -3.4017   -0.7958 C   0  0  0  0  0  0  0  0  0  0  0  0
    1.0579    1.4943   -0.1401 S   0  0  0  0  0  0  0  0  0  0  0  0
    0.2404    1.4256    1.4766 C   0  0  0  0  0  0  0  0  0  0  0  0
   -0.9162    0.0364    1.6519 S   0  0  0  0  0  0  0  0  0  0  0  0
   -2.1475    0.3518   -0.0525 P   0  0  0  0  0  0  0  0  0  0  0  0
   -1.6787   -0.4171   -1.7983 S   0  0  0  0  0  0  0  0  0  0  0  0
   -2.2586    1.9281    0.0192 O   0  0  0  0  0  0  0  0  0  0  0  0
   -2.6240    2.7176   -1.1327 C   0  0  0  0  0  0  0  0  0  0  0  0
   -4.0804    2.5267   -1.4991 C   0  0  0  0  0  0  0  0  0  0  0  0
   -3.5801   -0.1146    0.4626 O   0  0  0  0  0  0  0  0  0  0  0  0
   -4.0362   -1.4677    0.3173 C   0  0  0  0  0  0  0  0  0  0  0  0
   -3.2721   -2.4128    1.2225 C   0  0  0  0  0  0  0  0  0  0  0  0
    3.9325    2.2819   -1.5226 H   0  0  0  0  0  0  0  0  0  0  0  0
    4.0099    2.0552    0.2303 H   0  0  0  0  0  0  0  0  0  0  0  0
    5.5048    2.2044   -0.7051 H   0  0  0  0  0  0  0  0  0  0  0  0
    4.9989   -0.1728   -0.0431 H   0  0  0  0  0  0  0  0  0  0  0  0
    5.0680    0.0365   -1.8197 H   0  0  0  0  0  0  0  0  0  0  0  0
    1.0699   -2.8623    0.8694 H   0  0  0  0  0  0  0  0  0  0  0  0
    0.1943   -3.1031   -0.6750 H   0  0  0  0  0  0  0  0  0  0  0  0
    2.2695   -4.4742   -0.6441 H   0  0  0  0  0  0  0  0  0  0  0  0
    2.4153   -3.1884   -1.8592 H   0  0  0  0  0  0  0  0  0  0  0  0
    3.2345   -3.0302   -0.2961 H   0  0  0  0  0  0  0  0  0  0  0  0
   -0.2909    2.3646    1.6043 H   0  0  0  0  0  0  0  0  0  0  0  0
    0.9891    1.2813    2.2566 H   0  0  0  0  0  0  0  0  0  0  0  0
   -2.4115    3.7423   -0.8257 H   0  0  0  0  0  0  0  0  0  0  0  0
   -1.9726    2.4370   -1.9667 H   0  0  0  0  0  0  0  0  0  0  0  0
   -4.3422    3.2086   -2.3020 H   0  0  0  0  0  0  0  0  0  0  0  0
   -4.2447    1.5037   -1.8349 H   0  0  0  0  0  0  0  0  0  0  0  0
   -4.7128    2.7194   -0.6367 H   0  0  0  0  0  0  0  0  0  0  0  0
   -5.0941   -1.4230    0.5782 H   0  0  0  0  0  0  0  0  0  0  0  0
   -3.9211   -1.7613   -0.7318 H   0  0  0  0  0  0  0  0  0  0  0  0
   -3.3410   -2.0858    2.2568 H   0  0  0  0  0  0  0  0  0  0  0  0
   -3.6774   -3.4152    1.1301 H   0  0  0  0  0  0  0  0  0  0  0  0
   -2.2201   -2.4263    0.9343 H   0  0  0  0  0  0  0  0  0  0  0  0
  1  2  1  0  0  0  0
  2  3  1  0  0  0  0
  3  4  2  0  0  0  0
  4  5  2  0  0  0  0
  4  6  2  0  0  0  0
  6  7  1  0  0  0  0
  7  8  1  0  0  0  0
  4  9  1  0  0  0  0
  9 10  1  0  0  0  0
 10 11  1  0  0  0  0
 11 12  1  0  0  0  0
 12 13  2  0  0  0  0
 12 14  2  0  0  0  0
 14 15  1  0  0  0  0
 15 16  1  0  0  0  0
 12 17  2  0  0  0  0
 17 18  1  0  0  0  0
 18 19  1  0  0  0  0
  1 20  1  0  0  0  0
  1 21  1  0  0  0  0
  1 22  1  0  0  0  0
  2 23  1  0  0  0  0
  2 24  1  0  0  0  0
  7 25  1  0  0  0  0
  7 26  1  0  0  0  0
  8 27  1  0  0  0  0
  8 28  1  0  0  0  0
  8 29  1  0  0  0  0
 10 30  1  0  0  0  0
 10 31  1  0  0  0  0
 15 32  1  0  0  0  0
 15 33  1  0  0  0  0
 16 34  1  0  0  0  0
 16 35  1  0  0  0  0
 16 36  1  0  0  0  0
 18 37  1  0  0  0  0
 18 38  1  0  0  0  0
 19 39  1  0  0  0  0
 19 40  1  0  0  0  0
 19 41  1  0  0  0  0
M  END
