 xtb: 6.7.1 (edcfbbe)
          04092505213D

 41 40  0     0  0            999 V2000
    6.0897    0.1688   -1.5248 C   0  0  0  0  0  0  0  0  0  0  0  0
    4.6875    0.6467   -1.2069 C   0  0  0  0  0  0  0  0  0  0  0  0
    3.9731   -0.4533   -0.6043 O   0  0  0  0  0  0  0  0  0  0  0  0
    2.6383   -0.1964    0.1971 P   0  0  0  0  0  0  0  0  0  0  0  0
    2.7291    1.1502    1.6244 S   0  0  0  0  0  0  0  0  0  0  0  0
    2.4463   -1.6941    0.6585 O   0  0  0  0  0  0  0  0  0  0  0  0
    1.4279   -2.1124    1.5881 C   0  0  0  0  0  0  0  0  0  0  0  0
    0.3381   -2.8785    0.8632 C   0  0  0  0  0  0  0  0  0  0  0  0
    1.2123    0.2234   -1.3366 S   0  0  0  0  0  0  0  0  0  0  0  0
    0.2027    1.4324   -0.4339 C   0  0  0  0  0  0  0  0  0  0  0  0
   -0.8592    0.6977    0.8362 S   0  0  0  0  0  0  0  0  0  0  0  0
   -2.4638    0.1421   -0.4674 P   0  0  0  0  0  0  0  0  0  0  0  0
   -2.0315   -1.0985   -1.9158 S   0  0  0  0  0  0  0  0  0  0  0  0
   -3.0090    1.5162   -1.0134 O   0  0  0  0  0  0  0  0  0  0  0  0
   -3.5405    2.5665   -0.1640 C   0  0  0  0  0  0  0  0  0  0  0  0
   -5.0474    2.4597   -0.0560 C   0  0  0  0  0  0  0  0  0  0  0  0
   -3.6047   -0.3401    0.5243 O   0  0  0  0  0  0  0  0  0  0  0  0
   -3.5993   -1.6484    1.1281 C   0  0  0  0  0  0  0  0  0  0  0  0
   -2.9711   -1.6049    2.5072 C   0  0  0  0  0  0  0  0  0  0  0  0
    6.5972   -0.1291   -0.6118 H   0  0  0  0  0  0  0  0  0  0  0  0
    6.0455   -0.6838   -2.1960 H   0  0  0  0  0  0  0  0  0  0  0  0
    6.6424    0.9736   -1.9982 H   0  0  0  0  0  0  0  0  0  0  0  0
    4.1537    0.9477   -2.1131 H   0  0  0  0  0  0  0  0  0  0  0  0
    4.7011    1.4854   -0.5018 H   0  0  0  0  0  0  0  0  0  0  0  0
    1.9442   -2.7542    2.3050 H   0  0  0  0  0  0  0  0  0  0  0  0
    1.0293   -1.2362    2.1121 H   0  0  0  0  0  0  0  0  0  0  0  0
    0.7742   -3.7059    0.3109 H   0  0  0  0  0  0  0  0  0  0  0  0
   -0.3716   -3.2644    1.5878 H   0  0  0  0  0  0  0  0  0  0  0  0
   -0.1861   -2.2384    0.1551 H   0  0  0  0  0  0  0  0  0  0  0  0
   -0.4092    1.9368   -1.1784 H   0  0  0  0  0  0  0  0  0  0  0  0
    0.8607    2.1279    0.0874 H   0  0  0  0  0  0  0  0  0  0  0  0
   -3.0667    2.5028    0.8190 H   0  0  0  0  0  0  0  0  0  0  0  0
   -3.2443    3.4926   -0.6604 H   0  0  0  0  0  0  0  0  0  0  0  0
   -5.4215    3.3028    0.5165 H   0  0  0  0  0  0  0  0  0  0  0  0
   -5.4932    2.4727   -1.0469 H   0  0  0  0  0  0  0  0  0  0  0  0
   -5.3261    1.5352    0.4416 H   0  0  0  0  0  0  0  0  0  0  0  0
   -4.6521   -1.9315    1.1822 H   0  0  0  0  0  0  0  0  0  0  0  0
   -3.0718   -2.3411    0.4645 H   0  0  0  0  0  0  0  0  0  0  0  0
   -3.0148   -2.5949    2.9496 H   0  0  0  0  0  0  0  0  0  0  0  0
   -1.9329   -1.2857    2.4443 H   0  0  0  0  0  0  0  0  0  0  0  0
   -3.5102   -0.9066    3.1409 H   0  0  0  0  0  0  0  0  0  0  0  0
  1  2  1  0  0  0  0
  2  3  1  0  0  0  0
  3  4  2  0  0  0  0
  4  5  2  0  0  0  0
  4  6  2  0  0  0  0
  6  7  1  0  0  0  0
  7  8  1  0  0  0  0
  4  9  1  0  0  0  0
  9 10  1  0  0  0  0
 10 11  1  0  0  0  0
 11 12  1  0  0  0  0
 12 13  2  0  0  0  0
 12 14  2  0  0  0  0
 14 15  1  0  0  0  0
 15 16  1  0  0  0  0
 12 17  2  0  0  0  0
 17 18  1  0  0  0  0
 18 19  1  0  0  0  0
  1 20  1  0  0  0  0
  1 21  1  0  0  0  0
  1 22  1  0  0  0  0
  2 23  1  0  0  0  0
  2 24  1  0  0  0  0
  7 25  1  0  0  0  0
  7 26  1  0  0  0  0
  8 27  1  0  0  0  0
  8 28  1  0  0  0  0
  8 29  1  0  0  0  0
 10 30  1  0  0  0  0
 10 31  1  0  0  0  0
 15 32  1  0  0  0  0
 15 33  1  0  0  0  0
 16 34  1  0  0  0  0
 16 35  1  0  0  0  0
 16 36  1  0  0  0  0
 18 37  1  0  0  0  0
 18 38  1  0  0  0  0
 19 39  1  0  0  0  0
 19 40  1  0  0  0  0
 19 41  1  0  0  0  0
M  END
