 xtb: 6.7.1 (edcfbbe)
          04092514013D

 41 40  0     0  0            999 V2000
    1.6318   -2.8081    1.1634 C   0  0  0  0  0  0  0  0  0  0  0  0
    1.5599   -1.3871    1.6839 C   0  0  0  0  0  0  0  0  0  0  0  0
    2.6202   -0.5652    1.1731 O   0  0  0  0  0  0  0  0  0  0  0  0
    2.6700    0.0759   -0.2851 P   0  0  0  0  0  0  0  0  0  0  0  0
    3.0005   -1.1070   -1.8111 S   0  0  0  0  0  0  0  0  0  0  0  0
    3.8639    1.0889   -0.1223 O   0  0  0  0  0  0  0  0  0  0  0  0
    4.2080    1.8043    1.0910 C   0  0  0  0  0  0  0  0  0  0  0  0
    3.1157    2.7527    1.5364 C   0  0  0  0  0  0  0  0  0  0  0  0
    0.8778    1.2409   -0.4451 S   0  0  0  0  0  0  0  0  0  0  0  0
    0.0191    0.3057   -1.7294 C   0  0  0  0  0  0  0  0  0  0  0  0
   -0.8686   -1.1548   -1.1095 S   0  0  0  0  0  0  0  0  0  0  0  0
   -2.3760   -0.1187   -0.0627 P   0  0  0  0  0  0  0  0  0  0  0  0
   -3.0940    1.5235   -0.8676 S   0  0  0  0  0  0  0  0  0  0  0  0
   -1.6562    0.0464    1.3389 O   0  0  0  0  0  0  0  0  0  0  0  0
   -2.1410    0.9374    2.3720 C   0  0  0  0  0  0  0  0  0  0  0  0
   -0.9872    1.7850    2.8696 C   0  0  0  0  0  0  0  0  0  0  0  0
   -3.4728   -1.2194    0.2813 O   0  0  0  0  0  0  0  0  0  0  0  0
   -4.6260   -1.4700   -0.5404 C   0  0  0  0  0  0  0  0  0  0  0  0
   -4.2652   -2.1576   -1.8414 C   0  0  0  0  0  0  0  0  0  0  0  0
    1.4808   -2.8282    0.0856 H   0  0  0  0  0  0  0  0  0  0  0  0
    2.6033   -3.2414    1.3867 H   0  0  0  0  0  0  0  0  0  0  0  0
    0.8547   -3.3994    1.6370 H   0  0  0  0  0  0  0  0  0  0  0  0
    1.7052   -1.3563    2.7658 H   0  0  0  0  0  0  0  0  0  0  0  0
    0.5982   -0.9290    1.4334 H   0  0  0  0  0  0  0  0  0  0  0  0
    4.4315    1.0698    1.8667 H   0  0  0  0  0  0  0  0  0  0  0  0
    5.1174    2.3398    0.8141 H   0  0  0  0  0  0  0  0  0  0  0  0
    3.4606    3.3095    2.4022 H   0  0  0  0  0  0  0  0  0  0  0  0
    2.8663    3.4479    0.7389 H   0  0  0  0  0  0  0  0  0  0  0  0
    2.2192    2.1979    1.8074 H   0  0  0  0  0  0  0  0  0  0  0  0
    0.7463   -0.0665   -2.4528 H   0  0  0  0  0  0  0  0  0  0  0  0
   -0.6932    0.9897   -2.1896 H   0  0  0  0  0  0  0  0  0  0  0  0
   -2.9380    1.5637    1.9586 H   0  0  0  0  0  0  0  0  0  0  0  0
   -2.5482    0.3051    3.1633 H   0  0  0  0  0  0  0  0  0  0  0  0
   -0.6064    2.4062    2.0622 H   0  0  0  0  0  0  0  0  0  0  0  0
   -1.3348    2.4210    3.6773 H   0  0  0  0  0  0  0  0  0  0  0  0
   -0.1865    1.1476    3.2339 H   0  0  0  0  0  0  0  0  0  0  0  0
   -5.2596   -2.1013    0.0842 H   0  0  0  0  0  0  0  0  0  0  0  0
   -5.1266   -0.5159   -0.7349 H   0  0  0  0  0  0  0  0  0  0  0  0
   -5.1760   -2.4258   -2.3679 H   0  0  0  0  0  0  0  0  0  0  0  0
   -3.6790   -1.4883   -2.4697 H   0  0  0  0  0  0  0  0  0  0  0  0
   -3.6833   -3.0550   -1.6479 H   0  0  0  0  0  0  0  0  0  0  0  0
  1  2  1  0  0  0  0
  2  3  1  0  0  0  0
  3  4  2  0  0  0  0
  4  5  2  0  0  0  0
  4  6  2  0  0  0  0
  6  7  1  0  0  0  0
  7  8  1  0  0  0  0
  4  9  1  0  0  0  0
  9 10  1  0  0  0  0
 10 11  1  0  0  0  0
 11 12  1  0  0  0  0
 12 13  2  0  0  0  0
 12 14  2  0  0  0  0
 14 15  1  0  0  0  0
 15 16  1  0  0  0  0
 12 17  2  0  0  0  0
 17 18  1  0  0  0  0
 18 19  1  0  0  0  0
  1 20  1  0  0  0  0
  1 21  1  0  0  0  0
  1 22  1  0  0  0  0
  2 23  1  0  0  0  0
  2 24  1  0  0  0  0
  7 25  1  0  0  0  0
  7 26  1  0  0  0  0
  8 27  1  0  0  0  0
  8 28  1  0  0  0  0
  8 29  1  0  0  0  0
 10 30  1  0  0  0  0
 10 31  1  0  0  0  0
 15 32  1  0  0  0  0
 15 33  1  0  0  0  0
 16 34  1  0  0  0  0
 16 35  1  0  0  0  0
 16 36  1  0  0  0  0
 18 37  1  0  0  0  0
 18 38  1  0  0  0  0
 19 39  1  0  0  0  0
 19 40  1  0  0  0  0
 19 41  1  0  0  0  0
M  END
