 xtb: 6.7.1 (edcfbbe)
          04032519463D

  8  7  0     0  0            999 V2000
   -0.7610   -0.0000    0.0000 C   0  0  0  0  0  0  0  0  0  0  0  0
    0.7611    0.0000    0.0000 C   0  0  0  0  0  0  0  0  0  0  0  0
   -1.1431    0.3936    0.9391 H   0  0  0  0  0  0  0  0  0  0  0  0
   -1.1429    0.6169   -0.8102 H   0  0  0  0  0  0  0  0  0  0  0  0
   -1.1437   -1.0099   -0.1290 H   0  0  0  0  0  0  0  0  0  0  0  0
    1.1432    1.0101    0.1289 H   0  0  0  0  0  0  0  0  0  0  0  0
    1.1431   -0.3935   -0.9392 H   0  0  0  0  0  0  0  0  0  0  0  0
    1.1432   -0.6170    0.8101 H   0  0  0  0  0  0  0  0  0  0  0  0
  1  2  1  0  0  0  0
  1  3  1  0  0  0  0
  1  4  1  0  0  0  0
  1  5  1  0  0  0  0
  2  6  1  0  0  0  0
  2  7  1  0  0  0  0
  2  8  1  0  0  0  0
M  END
