 xtb: 6.7.1 (edcfbbe)
          04092505213D

 41 40  0     0  0            999 V2000
    4.6432   -0.8150   -1.7149 C   0  0  0  0  0  0  0  0  0  0  0  0
    4.1638   -1.2960   -0.3622 C   0  0  0  0  0  0  0  0  0  0  0  0
    3.5841   -0.2419    0.4327 O   0  0  0  0  0  0  0  0  0  0  0  0
    2.4087    0.7161   -0.0385 P   0  0  0  0  0  0  0  0  0  0  0  0
    2.8145    2.2039   -1.2404 S   0  0  0  0  0  0  0  0  0  0  0  0
    1.8758    1.2913    1.3278 O   0  0  0  0  0  0  0  0  0  0  0  0
    1.5581    0.4717    2.4774 C   0  0  0  0  0  0  0  0  0  0  0  0
    2.7014    0.4846    3.4700 C   0  0  0  0  0  0  0  0  0  0  0  0
    0.9446   -0.6509   -0.7572 S   0  0  0  0  0  0  0  0  0  0  0  0
   -0.0398    0.5998   -1.6497 C   0  0  0  0  0  0  0  0  0  0  0  0
   -1.7022    0.0014   -2.0032 S   0  0  0  0  0  0  0  0  0  0  0  0
   -2.3413   -0.0744    0.0155 P   0  0  0  0  0  0  0  0  0  0  0  0
   -1.6857    1.3047    1.2340 S   0  0  0  0  0  0  0  0  0  0  0  0
   -1.9914   -1.5230    0.5650 O   0  0  0  0  0  0  0  0  0  0  0  0
   -2.4299   -2.7272   -0.1140 C   0  0  0  0  0  0  0  0  0  0  0  0
   -1.2503   -3.4383   -0.7451 C   0  0  0  0  0  0  0  0  0  0  0  0
   -3.9051   -0.0535   -0.2987 O   0  0  0  0  0  0  0  0  0  0  0  0
   -4.8692    0.3753    0.6831 C   0  0  0  0  0  0  0  0  0  0  0  0
   -5.0164   -0.6361    1.8023 C   0  0  0  0  0  0  0  0  0  0  0  0
    5.3340    0.0169   -1.5996 H   0  0  0  0  0  0  0  0  0  0  0  0
    5.1418   -1.6291   -2.2309 H   0  0  0  0  0  0  0  0  0  0  0  0
    3.7993   -0.4771   -2.3146 H   0  0  0  0  0  0  0  0  0  0  0  0
    4.9929   -1.6523    0.2516 H   0  0  0  0  0  0  0  0  0  0  0  0
    3.4162   -2.0858   -0.4752 H   0  0  0  0  0  0  0  0  0  0  0  0
    0.6555    0.9234    2.8949 H   0  0  0  0  0  0  0  0  0  0  0  0
    1.3304   -0.5435    2.1391 H   0  0  0  0  0  0  0  0  0  0  0  0
    3.5912    0.0469    3.0251 H   0  0  0  0  0  0  0  0  0  0  0  0
    2.9232    1.5070    3.7632 H   0  0  0  0  0  0  0  0  0  0  0  0
    2.4160   -0.0870    4.3474 H   0  0  0  0  0  0  0  0  0  0  0  0
    0.4370    0.8195   -2.6027 H   0  0  0  0  0  0  0  0  0  0  0  0
   -0.0988    1.4980   -1.0310 H   0  0  0  0  0  0  0  0  0  0  0  0
   -2.8873   -3.3382    0.6661 H   0  0  0  0  0  0  0  0  0  0  0  0
   -3.1798   -2.4609   -0.8644 H   0  0  0  0  0  0  0  0  0  0  0  0
   -0.8069   -2.8269   -1.5275 H   0  0  0  0  0  0  0  0  0  0  0  0
   -0.4916   -3.6398    0.0051 H   0  0  0  0  0  0  0  0  0  0  0  0
   -1.5914   -4.3746   -1.1750 H   0  0  0  0  0  0  0  0  0  0  0  0
   -4.5549    1.3460    1.0793 H   0  0  0  0  0  0  0  0  0  0  0  0
   -5.7924    0.4900    0.1135 H   0  0  0  0  0  0  0  0  0  0  0  0
   -5.3003   -1.6058    1.4018 H   0  0  0  0  0  0  0  0  0  0  0  0
   -4.0717   -0.7330    2.3372 H   0  0  0  0  0  0  0  0  0  0  0  0
   -5.7801   -0.2962    2.4950 H   0  0  0  0  0  0  0  0  0  0  0  0
  1  2  1  0  0  0  0
  2  3  1  0  0  0  0
  3  4  2  0  0  0  0
  4  5  2  0  0  0  0
  4  6  2  0  0  0  0
  6  7  1  0  0  0  0
  7  8  1  0  0  0  0
  4  9  1  0  0  0  0
  9 10  1  0  0  0  0
 10 11  1  0  0  0  0
 11 12  1  0  0  0  0
 12 13  2  0  0  0  0
 12 14  2  0  0  0  0
 14 15  1  0  0  0  0
 15 16  1  0  0  0  0
 12 17  1  0  0  0  0
 17 18  1  0  0  0  0
 18 19  1  0  0  0  0
  1 20  1  0  0  0  0
  1 21  1  0  0  0  0
  1 22  1  0  0  0  0
  2 23  1  0  0  0  0
  2 24  1  0  0  0  0
  7 25  1  0  0  0  0
  7 26  1  0  0  0  0
  8 27  1  0  0  0  0
  8 28  1  0  0  0  0
  8 29  1  0  0  0  0
 10 30  1  0  0  0  0
 10 31  1  0  0  0  0
 15 32  1  0  0  0  0
 15 33  1  0  0  0  0
 16 34  1  0  0  0  0
 16 35  1  0  0  0  0
 16 36  1  0  0  0  0
 18 37  1  0  0  0  0
 18 38  1  0  0  0  0
 19 39  1  0  0  0  0
 19 40  1  0  0  0  0
 19 41  1  0  0  0  0
M  END
