9
CONF1
C -1.7127906782 0.3741385593 -0.0396801261
C -0.5974031312 -0.6499363329 0.0493488585
S 1.0945188658 0.1002679485 -0.0311418659
H -2.6831015620 -0.1353076024 -0.0123206748
H -1.6751612041 1.0726932079 0.8019721175
H -1.6524097652 0.9486870099 -0.9681675270
H -0.6290139923 -1.3429822733 -0.7966356840
H -0.6686982761 -1.2410890723 0.9658404245
H 0.9680619663 0.8685283994 1.0673007560
9
CONF2
C -1.6901704038 0.4139062321 -0.0199998476
C -0.6187306326 -0.6587476753 0.0726249263
S 1.0513269132 0.1438246563 -0.0297734653
H -2.6778487630 -0.0544542332 0.0392154947
H -1.6085110501 1.1344632832 0.7998500271
H -1.6311719790 0.9589272567 -0.9673106250
H -0.7109134436 -1.3739961047 -0.7484693978
H -0.6874973495 -1.1980170605 1.0205883149
H 1.7813688290 -0.9817741590 0.0800333849
