 xtb: 6.7.1 (edcfbbe)
          04092505213D

 41 40  0     0  0            999 V2000
    5.5209   -1.2701   -1.1661 C   0  0  0  0  0  0  0  0  0  0  0  0
    4.1592   -1.2523   -1.8332 C   0  0  0  0  0  0  0  0  0  0  0  0
    3.1223   -1.5392   -0.8713 O   0  0  0  0  0  0  0  0  0  0  0  0
    2.2556   -0.3906   -0.1929 P   0  0  0  0  0  0  0  0  0  0  0  0
    3.2717    1.1510    0.4751 S   0  0  0  0  0  0  0  0  0  0  0  0
    1.4306   -1.2255    0.8667 O   0  0  0  0  0  0  0  0  0  0  0  0
    1.9448   -1.4829    2.1987 C   0  0  0  0  0  0  0  0  0  0  0  0
    1.3953   -0.4789    3.1919 C   0  0  0  0  0  0  0  0  0  0  0  0
    0.7791    0.0286   -1.6427 S   0  0  0  0  0  0  0  0  0  0  0  0
    0.1956    1.5727   -0.8860 C   0  0  0  0  0  0  0  0  0  0  0  0
   -0.7164    1.2985    0.6446 S   0  0  0  0  0  0  0  0  0  0  0  0
   -2.3927    0.3302   -0.2639 P   0  0  0  0  0  0  0  0  0  0  0  0
   -2.8963    0.9916   -2.0337 S   0  0  0  0  0  0  0  0  0  0  0  0
   -3.4743    0.3547    0.8993 O   0  0  0  0  0  0  0  0  0  0  0  0
   -3.8680    1.5241    1.6434 C   0  0  0  0  0  0  0  0  0  0  0  0
   -4.3271    2.6596    0.7535 C   0  0  0  0  0  0  0  0  0  0  0  0
   -2.0512   -1.2057   -0.3575 O   0  0  0  0  0  0  0  0  0  0  0  0
   -1.7365   -2.0328    0.7872 C   0  0  0  0  0  0  0  0  0  0  0  0
   -2.9397   -2.8611    1.1873 C   0  0  0  0  0  0  0  0  0  0  0  0
    5.6817   -2.2240   -0.6717 H   0  0  0  0  0  0  0  0  0  0  0  0
    6.2888   -1.1205   -1.9181 H   0  0  0  0  0  0  0  0  0  0  0  0
    5.5875   -0.4732   -0.4286 H   0  0  0  0  0  0  0  0  0  0  0  0
    4.0706   -2.0393   -2.5841 H   0  0  0  0  0  0  0  0  0  0  0  0
    3.9642   -0.2819   -2.2983 H   0  0  0  0  0  0  0  0  0  0  0  0
    1.6153   -2.4974    2.4273 H   0  0  0  0  0  0  0  0  0  0  0  0
    3.0369   -1.4474    2.1739 H   0  0  0  0  0  0  0  0  0  0  0  0
    1.7549   -0.7284    4.1850 H   0  0  0  0  0  0  0  0  0  0  0  0
    1.7271    0.5249    2.9355 H   0  0  0  0  0  0  0  0  0  0  0  0
    0.3093   -0.4940    3.1879 H   0  0  0  0  0  0  0  0  0  0  0  0
   -0.4591    2.0459   -1.6184 H   0  0  0  0  0  0  0  0  0  0  0  0
    1.0498    2.2039   -0.6397 H   0  0  0  0  0  0  0  0  0  0  0  0
   -4.6792    1.1626    2.2779 H   0  0  0  0  0  0  0  0  0  0  0  0
   -3.0215    1.8360    2.2612 H   0  0  0  0  0  0  0  0  0  0  0  0
   -4.6959    3.4736    1.3692 H   0  0  0  0  0  0  0  0  0  0  0  0
   -3.4986    3.0208    0.1461 H   0  0  0  0  0  0  0  0  0  0  0  0
   -5.1181    2.3240    0.0870 H   0  0  0  0  0  0  0  0  0  0  0  0
   -0.9059   -2.6602    0.4567 H   0  0  0  0  0  0  0  0  0  0  0  0
   -1.4038   -1.3919    1.6081 H   0  0  0  0  0  0  0  0  0  0  0  0
   -2.6677   -3.5105    2.0135 H   0  0  0  0  0  0  0  0  0  0  0  0
   -3.7565   -2.2117    1.4913 H   0  0  0  0  0  0  0  0  0  0  0  0
   -3.2692   -3.4659    0.3470 H   0  0  0  0  0  0  0  0  0  0  0  0
  1  2  1  0  0  0  0
  2  3  1  0  0  0  0
  3  4  2  0  0  0  0
  4  5  2  0  0  0  0
  4  6  2  0  0  0  0
  6  7  1  0  0  0  0
  7  8  1  0  0  0  0
  4  9  1  0  0  0  0
  9 10  1  0  0  0  0
 10 11  1  0  0  0  0
 11 12  1  0  0  0  0
 12 13  2  0  0  0  0
 12 14  2  0  0  0  0
 14 15  1  0  0  0  0
 15 16  1  0  0  0  0
 12 17  2  0  0  0  0
 17 18  1  0  0  0  0
 18 19  1  0  0  0  0
  1 20  1  0  0  0  0
  1 21  1  0  0  0  0
  1 22  1  0  0  0  0
  2 23  1  0  0  0  0
  2 24  1  0  0  0  0
  7 25  1  0  0  0  0
  7 26  1  0  0  0  0
  8 27  1  0  0  0  0
  8 28  1  0  0  0  0
  8 29  1  0  0  0  0
 10 30  1  0  0  0  0
 10 31  1  0  0  0  0
 15 32  1  0  0  0  0
 15 33  1  0  0  0  0
 16 34  1  0  0  0  0
 16 35  1  0  0  0  0
 16 36  1  0  0  0  0
 18 37  1  0  0  0  0
 18 38  1  0  0  0  0
 19 39  1  0  0  0  0
 19 40  1  0  0  0  0
 19 41  1  0  0  0  0
M  END
