 xtb: 6.7.1 (edcfbbe)
          04092514013D

 41 40  0     0  0            999 V2000
    1.0780   -3.1885    1.1289 C   0  0  0  0  0  0  0  0  0  0  0  0
    1.9950   -2.1333    1.7147 C   0  0  0  0  0  0  0  0  0  0  0  0
    1.5659   -0.8181    1.2866 O   0  0  0  0  0  0  0  0  0  0  0  0
    2.4026    0.0492    0.2561 P   0  0  0  0  0  0  0  0  0  0  0  0
    3.2055   -0.9141   -1.2561 S   0  0  0  0  0  0  0  0  0  0  0  0
    3.4564    0.7391    1.2289 O   0  0  0  0  0  0  0  0  0  0  0  0
    4.6875    1.3279    0.7755 C   0  0  0  0  0  0  0  0  0  0  0  0
    4.4630    2.6251    0.0256 C   0  0  0  0  0  0  0  0  0  0  0  0
    0.9821    1.5488   -0.1673 S   0  0  0  0  0  0  0  0  0  0  0  0
    0.2016    0.7297   -1.5902 C   0  0  0  0  0  0  0  0  0  0  0  0
   -0.7474   -0.7445   -1.1528 S   0  0  0  0  0  0  0  0  0  0  0  0
   -2.5869    0.1867   -0.5505 P   0  0  0  0  0  0  0  0  0  0  0  0
   -2.8159    2.0520   -1.0867 S   0  0  0  0  0  0  0  0  0  0  0  0
   -2.7119   -0.1791    0.9965 O   0  0  0  0  0  0  0  0  0  0  0  0
   -1.7409    0.1515    2.0016 C   0  0  0  0  0  0  0  0  0  0  0  0
   -1.8094    1.6078    2.4142 C   0  0  0  0  0  0  0  0  0  0  0  0
   -3.7191   -0.7094   -1.1739 O   0  0  0  0  0  0  0  0  0  0  0  0
   -3.8154   -2.1418   -0.9606 C   0  0  0  0  0  0  0  0  0  0  0  0
   -4.8406   -2.4611    0.1088 C   0  0  0  0  0  0  0  0  0  0  0  0
    1.3711   -4.1647    1.5014 H   0  0  0  0  0  0  0  0  0  0  0  0
    0.0485   -2.9882    1.4120 H   0  0  0  0  0  0  0  0  0  0  0  0
    1.1476   -3.1836    0.0431 H   0  0  0  0  0  0  0  0  0  0  0  0
    3.0297   -2.2971    1.4003 H   0  0  0  0  0  0  0  0  0  0  0  0
    1.9431   -2.1138    2.8044 H   0  0  0  0  0  0  0  0  0  0  0  0
    5.2535    1.4892    1.6943 H   0  0  0  0  0  0  0  0  0  0  0  0
    5.2060    0.6018    0.1409 H   0  0  0  0  0  0  0  0  0  0  0  0
    3.8699    3.3123    0.6234 H   0  0  0  0  0  0  0  0  0  0  0  0
    5.4240    3.0788   -0.1967 H   0  0  0  0  0  0  0  0  0  0  0  0
    3.9398    2.4318   -0.9099 H   0  0  0  0  0  0  0  0  0  0  0  0
    0.9740    0.4038   -2.2859 H   0  0  0  0  0  0  0  0  0  0  0  0
   -0.4620    1.4694   -2.0399 H   0  0  0  0  0  0  0  0  0  0  0  0
   -1.9935   -0.5067    2.8353 H   0  0  0  0  0  0  0  0  0  0  0  0
   -0.7423   -0.1004    1.6312 H   0  0  0  0  0  0  0  0  0  0  0  0
   -1.5436    2.2548    1.5801 H   0  0  0  0  0  0  0  0  0  0  0  0
   -2.8146    1.8588    2.7424 H   0  0  0  0  0  0  0  0  0  0  0  0
   -1.1104    1.7792    3.2267 H   0  0  0  0  0  0  0  0  0  0  0  0
   -4.1157   -2.5437   -1.9297 H   0  0  0  0  0  0  0  0  0  0  0  0
   -2.8276   -2.5274   -0.6949 H   0  0  0  0  0  0  0  0  0  0  0  0
   -4.9242   -3.5392    0.2071 H   0  0  0  0  0  0  0  0  0  0  0  0
   -4.5408   -2.0346    1.0621 H   0  0  0  0  0  0  0  0  0  0  0  0
   -5.8078   -2.0507   -0.1679 H   0  0  0  0  0  0  0  0  0  0  0  0
  1  2  1  0  0  0  0
  2  3  1  0  0  0  0
  3  4  2  0  0  0  0
  4  5  2  0  0  0  0
  4  6  2  0  0  0  0
  6  7  1  0  0  0  0
  7  8  1  0  0  0  0
  4  9  1  0  0  0  0
  9 10  1  0  0  0  0
 10 11  1  0  0  0  0
 11 12  1  0  0  0  0
 12 13  2  0  0  0  0
 12 14  2  0  0  0  0
 14 15  1  0  0  0  0
 15 16  1  0  0  0  0
 12 17  2  0  0  0  0
 17 18  1  0  0  0  0
 18 19  1  0  0  0  0
  1 20  1  0  0  0  0
  1 21  1  0  0  0  0
  1 22  1  0  0  0  0
  2 23  1  0  0  0  0
  2 24  1  0  0  0  0
  7 25  1  0  0  0  0
  7 26  1  0  0  0  0
  8 27  1  0  0  0  0
  8 28  1  0  0  0  0
  8 29  1  0  0  0  0
 10 30  1  0  0  0  0
 10 31  1  0  0  0  0
 15 32  1  0  0  0  0
 15 33  1  0  0  0  0
 16 34  1  0  0  0  0
 16 35  1  0  0  0  0
 16 36  1  0  0  0  0
 18 37  1  0  0  0  0
 18 38  1  0  0  0  0
 19 39  1  0  0  0  0
 19 40  1  0  0  0  0
 19 41  1  0  0  0  0
M  END
