 xtb: 6.7.1 (edcfbbe)
          04092505203D

 41 40  0     0  0            999 V2000
    1.9368    2.1464    2.0515 C   0  0  0  0  0  0  0  0  0  0  0  0
    1.1902    0.8769    2.4001 C   0  0  0  0  0  0  0  0  0  0  0  0
    1.8347   -0.3311    1.9276 O   0  0  0  0  0  0  0  0  0  0  0  0
    2.4802   -0.6358    0.5257 P   0  0  0  0  0  0  0  0  0  0  0  0
    2.7776   -2.5665    0.3929 S   0  0  0  0  0  0  0  0  0  0  0  0
    3.7630    0.2976    0.5258 O   0  0  0  0  0  0  0  0  0  0  0  0
    4.5260    0.6734   -0.6355 C   0  0  0  0  0  0  0  0  0  0  0  0
    5.0005   -0.5177   -1.4412 C   0  0  0  0  0  0  0  0  0  0  0  0
    1.2472    0.2066   -1.0076 S   0  0  0  0  0  0  0  0  0  0  0  0
    0.1839   -1.2338   -1.2148 C   0  0  0  0  0  0  0  0  0  0  0  0
   -0.9978   -1.4311    0.1482 S   0  0  0  0  0  0  0  0  0  0  0  0
   -2.2168    0.2165   -0.3865 P   0  0  0  0  0  0  0  0  0  0  0  0
   -2.5226    0.4724   -2.3093 S   0  0  0  0  0  0  0  0  0  0  0  0
   -1.4976    1.3992    0.3771 O   0  0  0  0  0  0  0  0  0  0  0  0
   -1.6324    2.7751   -0.0443 C   0  0  0  0  0  0  0  0  0  0  0  0
   -3.0286    3.2974    0.2161 C   0  0  0  0  0  0  0  0  0  0  0  0
   -3.5216    0.0087    0.4915 O   0  0  0  0  0  0  0  0  0  0  0  0
   -4.5566   -0.9184    0.1076 C   0  0  0  0  0  0  0  0  0  0  0  0
   -5.8297   -0.5199    0.8267 C   0  0  0  0  0  0  0  0  0  0  0  0
    1.4446    2.9846    2.5358 H   0  0  0  0  0  0  0  0  0  0  0  0
    2.9649    2.0865    2.3990 H   0  0  0  0  0  0  0  0  0  0  0  0
    1.9347    2.3071    0.9748 H   0  0  0  0  0  0  0  0  0  0  0  0
    0.1763    0.8926    1.9909 H   0  0  0  0  0  0  0  0  0  0  0  0
    1.1433    0.7236    3.4797 H   0  0  0  0  0  0  0  0  0  0  0  0
    3.9076    1.3330   -1.2508 H   0  0  0  0  0  0  0  0  0  0  0  0
    5.3661    1.2324   -0.2197 H   0  0  0  0  0  0  0  0  0  0  0  0
    5.5519   -1.2089   -0.8082 H   0  0  0  0  0  0  0  0  0  0  0  0
    4.1502   -1.0486   -1.8668 H   0  0  0  0  0  0  0  0  0  0  0  0
    5.6428   -0.1756   -2.2463 H   0  0  0  0  0  0  0  0  0  0  0  0
    0.7976   -2.1360   -1.2292 H   0  0  0  0  0  0  0  0  0  0  0  0
   -0.3611   -1.1002   -2.1495 H   0  0  0  0  0  0  0  0  0  0  0  0
   -0.8818    3.3041    0.5438 H   0  0  0  0  0  0  0  0  0  0  0  0
   -1.3840    2.8367   -1.1084 H   0  0  0  0  0  0  0  0  0  0  0  0
   -3.2946    3.1559    1.2602 H   0  0  0  0  0  0  0  0  0  0  0  0
   -3.0716    4.3535   -0.0307 H   0  0  0  0  0  0  0  0  0  0  0  0
   -3.7436    2.7592   -0.4053 H   0  0  0  0  0  0  0  0  0  0  0  0
   -4.6793   -0.8754   -0.9801 H   0  0  0  0  0  0  0  0  0  0  0  0
   -4.2353   -1.9244    0.3910 H   0  0  0  0  0  0  0  0  0  0  0  0
   -5.6645   -0.5250    1.9001 H   0  0  0  0  0  0  0  0  0  0  0  0
   -6.1373    0.4762    0.5217 H   0  0  0  0  0  0  0  0  0  0  0  0
   -6.6139   -1.2278    0.5798 H   0  0  0  0  0  0  0  0  0  0  0  0
  1  2  1  0  0  0  0
  2  3  1  0  0  0  0
  3  4  2  0  0  0  0
  4  5  2  0  0  0  0
  4  6  2  0  0  0  0
  6  7  1  0  0  0  0
  7  8  1  0  0  0  0
  4  9  1  0  0  0  0
  9 10  1  0  0  0  0
 10 11  1  0  0  0  0
 11 12  1  0  0  0  0
 12 13  2  0  0  0  0
 12 14  2  0  0  0  0
 14 15  1  0  0  0  0
 15 16  1  0  0  0  0
 12 17  2  0  0  0  0
 17 18  1  0  0  0  0
 18 19  1  0  0  0  0
  1 20  1  0  0  0  0
  1 21  1  0  0  0  0
  1 22  1  0  0  0  0
  2 23  1  0  0  0  0
  2 24  1  0  0  0  0
  7 25  1  0  0  0  0
  7 26  1  0  0  0  0
  8 27  1  0  0  0  0
  8 28  1  0  0  0  0
  8 29  1  0  0  0  0
 10 30  1  0  0  0  0
 10 31  1  0  0  0  0
 15 32  1  0  0  0  0
 15 33  1  0  0  0  0
 16 34  1  0  0  0  0
 16 35  1  0  0  0  0
 16 36  1  0  0  0  0
 18 37  1  0  0  0  0
 18 38  1  0  0  0  0
 19 39  1  0  0  0  0
 19 40  1  0  0  0  0
 19 41  1  0  0  0  0
M  END
