 xtb: 6.7.1 (edcfbbe)
          04092505213D

 41 40  0     0  0            999 V2000
    1.0958   -3.3528    0.4597 C   0  0  0  0  0  0  0  0  0  0  0  0
    2.3021   -2.5392    0.8838 C   0  0  0  0  0  0  0  0  0  0  0  0
    1.9185   -1.1645    1.1030 O   0  0  0  0  0  0  0  0  0  0  0  0
    2.5079    0.0761    0.3169 P   0  0  0  0  0  0  0  0  0  0  0  0
    3.3987   -0.3957   -1.3717 S   0  0  0  0  0  0  0  0  0  0  0  0
    3.4032    0.7139    1.4627 O   0  0  0  0  0  0  0  0  0  0  0  0
    3.8391    2.0839    1.5243 C   0  0  0  0  0  0  0  0  0  0  0  0
    4.5055    2.5499    0.2462 C   0  0  0  0  0  0  0  0  0  0  0  0
    0.8665    1.4060    0.1841 S   0  0  0  0  0  0  0  0  0  0  0  0
    0.2005    0.7645   -1.3731 C   0  0  0  0  0  0  0  0  0  0  0  0
   -0.8239   -0.7050   -1.1500 S   0  0  0  0  0  0  0  0  0  0  0  0
   -2.6283    0.2725   -0.5300 P   0  0  0  0  0  0  0  0  0  0  0  0
   -2.7124    2.1971   -0.8651 S   0  0  0  0  0  0  0  0  0  0  0  0
   -2.8726   -0.1526    0.9866 O   0  0  0  0  0  0  0  0  0  0  0  0
   -2.2147    0.4736    2.1031 C   0  0  0  0  0  0  0  0  0  0  0  0
   -1.1778   -0.4580    2.7001 C   0  0  0  0  0  0  0  0  0  0  0  0
   -3.7594   -0.5120   -1.2868 O   0  0  0  0  0  0  0  0  0  0  0  0
   -3.8665   -1.9568   -1.3541 C   0  0  0  0  0  0  0  0  0  0  0  0
   -4.6577   -2.5098   -0.1873 C   0  0  0  0  0  0  0  0  0  0  0  0
    0.7242   -3.0031   -0.5008 H   0  0  0  0  0  0  0  0  0  0  0  0
    1.3870   -4.3944    0.3717 H   0  0  0  0  0  0  0  0  0  0  0  0
    0.3038   -3.2618    1.1972 H   0  0  0  0  0  0  0  0  0  0  0  0
    3.0852   -2.5733    0.1194 H   0  0  0  0  0  0  0  0  0  0  0  0
    2.7052   -2.8882    1.8361 H   0  0  0  0  0  0  0  0  0  0  0  0
    2.9709    2.7066    1.7574 H   0  0  0  0  0  0  0  0  0  0  0  0
    4.5370    2.0935    2.3635 H   0  0  0  0  0  0  0  0  0  0  0  0
    5.3223    1.8835   -0.0213 H   0  0  0  0  0  0  0  0  0  0  0  0
    3.7864    2.5604   -0.5721 H   0  0  0  0  0  0  0  0  0  0  0  0
    4.8928    3.5540    0.3867 H   0  0  0  0  0  0  0  0  0  0  0  0
    1.0281    0.4809   -2.0254 H   0  0  0  0  0  0  0  0  0  0  0  0
   -0.4027    1.5614   -1.8086 H   0  0  0  0  0  0  0  0  0  0  0  0
   -1.7667    1.4183    1.7770 H   0  0  0  0  0  0  0  0  0  0  0  0
   -3.0109    0.6855    2.8198 H   0  0  0  0  0  0  0  0  0  0  0  0
   -0.3838   -0.6638    1.9863 H   0  0  0  0  0  0  0  0  0  0  0  0
   -0.7429    0.0119    3.5764 H   0  0  0  0  0  0  0  0  0  0  0  0
   -1.6429   -1.3962    2.9898 H   0  0  0  0  0  0  0  0  0  0  0  0
   -4.3762   -2.1367   -2.3022 H   0  0  0  0  0  0  0  0  0  0  0  0
   -2.8596   -2.3818   -1.3902 H   0  0  0  0  0  0  0  0  0  0  0  0
   -4.1373   -2.3232    0.7476 H   0  0  0  0  0  0  0  0  0  0  0  0
   -5.6353   -2.0373   -0.1436 H   0  0  0  0  0  0  0  0  0  0  0  0
   -4.7825   -3.5798   -0.3216 H   0  0  0  0  0  0  0  0  0  0  0  0
  1  2  1  0  0  0  0
  2  3  1  0  0  0  0
  3  4  2  0  0  0  0
  4  5  2  0  0  0  0
  4  6  2  0  0  0  0
  6  7  1  0  0  0  0
  7  8  1  0  0  0  0
  4  9  1  0  0  0  0
  9 10  1  0  0  0  0
 10 11  1  0  0  0  0
 11 12  1  0  0  0  0
 12 13  2  0  0  0  0
 12 14  2  0  0  0  0
 14 15  1  0  0  0  0
 15 16  1  0  0  0  0
 12 17  2  0  0  0  0
 17 18  1  0  0  0  0
 18 19  1  0  0  0  0
  1 20  1  0  0  0  0
  1 21  1  0  0  0  0
  1 22  1  0  0  0  0
  2 23  1  0  0  0  0
  2 24  1  0  0  0  0
  7 25  1  0  0  0  0
  7 26  1  0  0  0  0
  8 27  1  0  0  0  0
  8 28  1  0  0  0  0
  8 29  1  0  0  0  0
 10 30  1  0  0  0  0
 10 31  1  0  0  0  0
 15 32  1  0  0  0  0
 15 33  1  0  0  0  0
 16 34  1  0  0  0  0
 16 35  1  0  0  0  0
 16 36  1  0  0  0  0
 18 37  1  0  0  0  0
 18 38  1  0  0  0  0
 19 39  1  0  0  0  0
 19 40  1  0  0  0  0
 19 41  1  0  0  0  0
M  END
