 xtb: 6.7.1 (edcfbbe)
          04092505203D

 41 40  0     0  0            999 V2000
    4.6201   -1.6167   -0.7068 C   0  0  0  0  0  0  0  0  0  0  0  0
    4.6671   -0.1628   -0.2828 C   0  0  0  0  0  0  0  0  0  0  0  0
    3.5026    0.2248    0.4658 O   0  0  0  0  0  0  0  0  0  0  0  0
    2.0570    0.3338   -0.1901 P   0  0  0  0  0  0  0  0  0  0  0  0
    2.0529    1.0192   -2.0300 S   0  0  0  0  0  0  0  0  0  0  0  0
    1.2860    1.1620    0.9190 O   0  0  0  0  0  0  0  0  0  0  0  0
    1.2468    2.6011    0.9263 C   0  0  0  0  0  0  0  0  0  0  0  0
    2.6102    3.2098    1.1734 C   0  0  0  0  0  0  0  0  0  0  0  0
    1.2523   -1.5786    0.1488 S   0  0  0  0  0  0  0  0  0  0  0  0
    0.0366   -1.6974   -1.2124 C   0  0  0  0  0  0  0  0  0  0  0  0
   -1.6361   -2.0040   -0.6134 S   0  0  0  0  0  0  0  0  0  0  0  0
   -2.0238   -0.0692    0.1814 P   0  0  0  0  0  0  0  0  0  0  0  0
   -1.4028    1.4123   -0.9424 S   0  0  0  0  0  0  0  0  0  0  0  0
   -1.3947    0.0216    1.6191 O   0  0  0  0  0  0  0  0  0  0  0  0
   -1.3369   -1.0248    2.6236 C   0  0  0  0  0  0  0  0  0  0  0  0
   -2.6813   -1.6525    2.9176 C   0  0  0  0  0  0  0  0  0  0  0  0
   -3.5802   -0.1164    0.4843 O   0  0  0  0  0  0  0  0  0  0  0  0
   -4.5885   -0.2555   -0.5361 C   0  0  0  0  0  0  0  0  0  0  0  0
   -5.0386    1.0957   -1.0564 C   0  0  0  0  0  0  0  0  0  0  0  0
    5.5719   -1.8909   -1.1503 H   0  0  0  0  0  0  0  0  0  0  0  0
    4.4220   -2.2550    0.1505 H   0  0  0  0  0  0  0  0  0  0  0  0
    3.8326   -1.7628   -1.4449 H   0  0  0  0  0  0  0  0  0  0  0  0
    4.7460    0.4887   -1.1591 H   0  0  0  0  0  0  0  0  0  0  0  0
    5.4936    0.0311    0.4021 H   0  0  0  0  0  0  0  0  0  0  0  0
    0.8322    2.9395   -0.0296 H   0  0  0  0  0  0  0  0  0  0  0  0
    0.5413    2.8349    1.7255 H   0  0  0  0  0  0  0  0  0  0  0  0
    3.0508    2.7894    2.0737 H   0  0  0  0  0  0  0  0  0  0  0  0
    3.2663    3.0048    0.3282 H   0  0  0  0  0  0  0  0  0  0  0  0
    2.5058    4.2845    1.2857 H   0  0  0  0  0  0  0  0  0  0  0  0
    0.3009   -2.5534   -1.8274 H   0  0  0  0  0  0  0  0  0  0  0  0
    0.0640   -0.7690   -1.7902 H   0  0  0  0  0  0  0  0  0  0  0  0
   -0.6177   -1.7766    2.2856 H   0  0  0  0  0  0  0  0  0  0  0  0
   -0.9358   -0.5028    3.4937 H   0  0  0  0  0  0  0  0  0  0  0  0
   -2.5736   -2.3244    3.7637 H   0  0  0  0  0  0  0  0  0  0  0  0
   -3.4120   -0.8848    3.1581 H   0  0  0  0  0  0  0  0  0  0  0  0
   -3.0328   -2.2207    2.0590 H   0  0  0  0  0  0  0  0  0  0  0  0
   -4.1983   -0.8788   -1.3449 H   0  0  0  0  0  0  0  0  0  0  0  0
   -5.4064   -0.7773   -0.0355 H   0  0  0  0  0  0  0  0  0  0  0  0
   -5.8396    0.9542   -1.7747 H   0  0  0  0  0  0  0  0  0  0  0  0
   -5.3949    1.7128   -0.2362 H   0  0  0  0  0  0  0  0  0  0  0  0
   -4.2118    1.6089   -1.5430 H   0  0  0  0  0  0  0  0  0  0  0  0
  1  2  1  0  0  0  0
  2  3  1  0  0  0  0
  3  4  2  0  0  0  0
  4  5  2  0  0  0  0
  4  6  2  0  0  0  0
  6  7  1  0  0  0  0
  7  8  1  0  0  0  0
  4  9  1  0  0  0  0
  9 10  1  0  0  0  0
 10 11  1  0  0  0  0
 11 12  1  0  0  0  0
 12 13  2  0  0  0  0
 12 14  2  0  0  0  0
 14 15  1  0  0  0  0
 15 16  1  0  0  0  0
 12 17  2  0  0  0  0
 17 18  1  0  0  0  0
 18 19  1  0  0  0  0
  1 20  1  0  0  0  0
  1 21  1  0  0  0  0
  1 22  1  0  0  0  0
  2 23  1  0  0  0  0
  2 24  1  0  0  0  0
  7 25  1  0  0  0  0
  7 26  1  0  0  0  0
  8 27  1  0  0  0  0
  8 28  1  0  0  0  0
  8 29  1  0  0  0  0
 10 30  1  0  0  0  0
 10 31  1  0  0  0  0
 15 32  1  0  0  0  0
 15 33  1  0  0  0  0
 16 34  1  0  0  0  0
 16 35  1  0  0  0  0
 16 36  1  0  0  0  0
 18 37  1  0  0  0  0
 18 38  1  0  0  0  0
 19 39  1  0  0  0  0
 19 40  1  0  0  0  0
 19 41  1  0  0  0  0
M  END
