  32
 
 C         -4.8318328557        1.1423282285       -0.7749015395
 C         -4.0399131121        0.7432692391        0.4664760629
 N         -2.7407654512        1.3749324029        0.4951807616
 C         -1.5798742445        0.7437699141        0.3132508501
 N         -0.4823975044        1.5067224032        0.2432154993
 C          0.6707544787        0.8480744305        0.0912644408
 N          0.7724722123       -0.4936873066        0.0046278200
 C         -0.3774783552       -1.1332980519        0.0851073420
 N         -1.5765809377       -0.6012727649        0.2377135935
 S         -0.3408433863       -2.8744791487       -0.0241588339
 C          1.4433862176       -3.1741741011       -0.2223438390
 N          1.7854052090        1.5753732802        0.0328107998
 C          3.1161705748        1.0514074501       -0.2047872376
 C          4.0730092513        1.5834685944        0.8583280856
 C          3.5858563758        1.4301352645       -1.6089813986
 H         -5.8027707289        0.6572278650       -0.7596727518
 H         -4.9785196637        2.2189827621       -0.8039363100
 H         -4.3028765377        0.8366804562       -1.6739544156
 H         -3.8701078861       -0.3333846478        0.4844597726
 H         -4.5869259407        1.0361745649        1.3670711443
 H         -2.6986069285        2.3828723638        0.4865508932
 H          1.5551996668       -4.2483626448       -0.3104715473
 H          1.9611770453       -2.7966858216        0.6520698102
 H          1.7857467311       -2.6691402033       -1.1183479322
 H          1.6652400769        2.5763933749        0.0682363787
 H          3.0307042009       -0.0355506262       -0.1248631555
 H          5.0598267782        1.1551916369        0.7130204613
 H          4.1488590453        2.6656493668        0.7891158607
 H          3.7207614750        1.3198337953        1.8518582810
 H          4.5632036289        0.9986961853       -1.8013319059
 H          3.6548031843        2.5107767797       -1.7051906718
 H          2.8869620836        1.0570968162       -2.3534097251
          32
        -45.89117858
 C         -4.7488204054        1.3108266147        0.8889992263
 C         -3.9757018549        0.8881690525       -0.3562099815
 N         -2.6554066013        1.4742215879       -0.3874360648
 C         -1.5157890968        0.7967780853       -0.2430072943
 N         -0.3875091207        1.5147010125       -0.1885218031
 C          0.7419176385        0.8083151803       -0.0774636304
 N          0.7921604361       -0.5378271541       -0.0146172815
 C         -0.3841489780       -1.1299961722       -0.0728230612
 N         -1.5642540276       -0.5484782593       -0.1865261609
 S         -0.4150188825       -2.8729271487        0.0072871124
 C          1.3602565478       -3.2470822889        0.1520116513
 N          1.8852161592        1.4895677870       -0.0245840264
 C          3.2061030463        0.9053087672        0.1001231751
 C          3.8671007690        1.3888466005        1.3892469733
 C          4.0502940131        1.2658603070       -1.1205474912
 H         -5.7314614178        0.8497395183        0.8817380163
 H         -4.2216534180        0.9947207936        1.7855068704
 H         -4.8690250595        2.3907886968        0.9157032320
 H         -4.5157823760        1.2014624246       -1.2543137599
 H         -3.8426206589       -0.1936226753       -0.3778952645
 H         -2.5760618867        2.4797240871       -0.3720188032
 H          1.7450425944       -2.7774160378        1.0500200306
 H          1.8705098425       -2.8698166359       -0.7268604583
 H          1.4312373371       -4.3265854682        0.2131013595
 H          1.8090571665        2.4942338303       -0.0738115489
 H          3.0534611439       -0.1763863118        0.1417194754
 H          4.8341912102        0.9107618440        1.5099879869
 H          4.0110831249        2.4658972874        1.3581719032
 H          3.2468699429        1.1434157944        2.2473726539
 H          4.1962637281        2.3417837568       -1.1740928392
 H          3.5589557114        0.9337973860       -2.0313652074
 H          5.0210518395        0.7847445570       -1.0528577381
