 xtb: 6.7.1 (edcfbbe)
          04092513593D

 41 40  0     0  0            999 V2000
    5.1492   -1.6967   -0.4960 C   0  0  0  0  0  0  0  0  0  0  0  0
    4.6854   -0.6849   -1.5238 C   0  0  0  0  0  0  0  0  0  0  0  0
    3.2736   -0.3943   -1.4099 O   0  0  0  0  0  0  0  0  0  0  0  0
    2.7044    0.4317   -0.1776 P   0  0  0  0  0  0  0  0  0  0  0  0
    3.8412    1.8766    0.4946 S   0  0  0  0  0  0  0  0  0  0  0  0
    2.3941   -0.7306    0.8712 O   0  0  0  0  0  0  0  0  0  0  0  0
    2.3270   -0.4842    2.2835 C   0  0  0  0  0  0  0  0  0  0  0  0
    1.0732    0.2726    2.6710 C   0  0  0  0  0  0  0  0  0  0  0  0
    0.8430    1.0279   -0.9811 S   0  0  0  0  0  0  0  0  0  0  0  0
    0.1649   -0.5851   -1.4954 C   0  0  0  0  0  0  0  0  0  0  0  0
   -0.7104   -1.4694   -0.1811 S   0  0  0  0  0  0  0  0  0  0  0  0
   -2.4164   -0.2222   -0.0729 P   0  0  0  0  0  0  0  0  0  0  0  0
   -3.0317    0.5409   -1.7763 S   0  0  0  0  0  0  0  0  0  0  0  0
   -1.9908    0.8185    1.0391 O   0  0  0  0  0  0  0  0  0  0  0  0
   -2.5227    2.1558    1.1091 C   0  0  0  0  0  0  0  0  0  0  0  0
   -3.9329    2.1663    1.6615 C   0  0  0  0  0  0  0  0  0  0  0  0
   -3.4506   -1.1208    0.7330 O   0  0  0  0  0  0  0  0  0  0  0  0
   -4.0853   -2.2849    0.1632 C   0  0  0  0  0  0  0  0  0  0  0  0
   -5.4745   -1.9513   -0.3464 C   0  0  0  0  0  0  0  0  0  0  0  0
    5.0896   -1.2697    0.5038 H   0  0  0  0  0  0  0  0  0  0  0  0
    4.5304   -2.5892   -0.5362 H   0  0  0  0  0  0  0  0  0  0  0  0
    6.1814   -1.9643   -0.7010 H   0  0  0  0  0  0  0  0  0  0  0  0
    4.7923   -1.0649   -2.5406 H   0  0  0  0  0  0  0  0  0  0  0  0
    5.2402    0.2529   -1.4175 H   0  0  0  0  0  0  0  0  0  0  0  0
    2.3515   -1.4798    2.7279 H   0  0  0  0  0  0  0  0  0  0  0  0
    3.2170    0.0825    2.5781 H   0  0  0  0  0  0  0  0  0  0  0  0
    0.1846   -0.2641    2.3472 H   0  0  0  0  0  0  0  0  0  0  0  0
    1.0449    0.3937    3.7491 H   0  0  0  0  0  0  0  0  0  0  0  0
    1.0782    1.2580    2.2041 H   0  0  0  0  0  0  0  0  0  0  0  0
    0.9727   -1.2259   -1.8353 H   0  0  0  0  0  0  0  0  0  0  0  0
   -0.5362   -0.3625   -2.3007 H   0  0  0  0  0  0  0  0  0  0  0  0
   -1.8276    2.6837    1.7635 H   0  0  0  0  0  0  0  0  0  0  0  0
   -2.4928    2.5978    0.1077 H   0  0  0  0  0  0  0  0  0  0  0  0
   -3.9635    1.6674    2.6263 H   0  0  0  0  0  0  0  0  0  0  0  0
   -4.2649    3.1939    1.7753 H   0  0  0  0  0  0  0  0  0  0  0  0
   -4.6035    1.6504    0.9756 H   0  0  0  0  0  0  0  0  0  0  0  0
   -3.4590   -2.6840   -0.6398 H   0  0  0  0  0  0  0  0  0  0  0  0
   -4.1271   -3.0055    0.9821 H   0  0  0  0  0  0  0  0  0  0  0  0
   -5.4166   -1.2400   -1.1674 H   0  0  0  0  0  0  0  0  0  0  0  0
   -5.9523   -2.8601   -0.6987 H   0  0  0  0  0  0  0  0  0  0  0  0
   -6.0721   -1.5198    0.4517 H   0  0  0  0  0  0  0  0  0  0  0  0
  1  2  1  0  0  0  0
  2  3  1  0  0  0  0
  3  4  2  0  0  0  0
  4  5  2  0  0  0  0
  4  6  2  0  0  0  0
  6  7  1  0  0  0  0
  7  8  1  0  0  0  0
  4  9  1  0  0  0  0
  9 10  1  0  0  0  0
 10 11  1  0  0  0  0
 11 12  1  0  0  0  0
 12 13  2  0  0  0  0
 12 14  2  0  0  0  0
 14 15  1  0  0  0  0
 15 16  1  0  0  0  0
 12 17  2  0  0  0  0
 17 18  1  0  0  0  0
 18 19  1  0  0  0  0
  1 20  1  0  0  0  0
  1 21  1  0  0  0  0
  1 22  1  0  0  0  0
  2 23  1  0  0  0  0
  2 24  1  0  0  0  0
  7 25  1  0  0  0  0
  7 26  1  0  0  0  0
  8 27  1  0  0  0  0
  8 28  1  0  0  0  0
  8 29  1  0  0  0  0
 10 30  1  0  0  0  0
 10 31  1  0  0  0  0
 15 32  1  0  0  0  0
 15 33  1  0  0  0  0
 16 34  1  0  0  0  0
 16 35  1  0  0  0  0
 16 36  1  0  0  0  0
 18 37  1  0  0  0  0
 18 38  1  0  0  0  0
 19 39  1  0  0  0  0
 19 40  1  0  0  0  0
 19 41  1  0  0  0  0
M  END
