 xtb: 6.7.1 (edcfbbe)
          04092505203D

 41 40  0     0  0            999 V2000
    4.0436   -1.1273   -2.7330 C   0  0  0  0  0  0  0  0  0  0  0  0
    4.4372   -0.7125   -1.3314 C   0  0  0  0  0  0  0  0  0  0  0  0
    3.5255    0.2448   -0.7556 O   0  0  0  0  0  0  0  0  0  0  0  0
    1.9687    0.0156   -0.5672 P   0  0  0  0  0  0  0  0  0  0  0  0
    0.8015    0.2353   -2.1272 S   0  0  0  0  0  0  0  0  0  0  0  0
    1.6053    1.0990    0.5175 O   0  0  0  0  0  0  0  0  0  0  0  0
    2.4264    1.5401    1.6262 C   0  0  0  0  0  0  0  0  0  0  0  0
    2.6362    0.4577    2.6651 C   0  0  0  0  0  0  0  0  0  0  0  0
    1.8279   -1.9156    0.3027 S   0  0  0  0  0  0  0  0  0  0  0  0
    0.0287   -2.0204    0.2316 C   0  0  0  0  0  0  0  0  0  0  0  0
   -0.8011   -0.9552    1.4640 S   0  0  0  0  0  0  0  0  0  0  0  0
   -1.8743    0.4969    0.3651 P   0  0  0  0  0  0  0  0  0  0  0  0
   -1.2254    2.3074    0.0172 S   0  0  0  0  0  0  0  0  0  0  0  0
   -3.1817    0.6504    1.2564 O   0  0  0  0  0  0  0  0  0  0  0  0
   -4.0220   -0.4584    1.6566 C   0  0  0  0  0  0  0  0  0  0  0  0
   -3.8881   -0.7085    3.1457 C   0  0  0  0  0  0  0  0  0  0  0  0
   -2.2684   -0.4007   -0.9002 O   0  0  0  0  0  0  0  0  0  0  0  0
   -2.6918    0.1913   -2.1406 C   0  0  0  0  0  0  0  0  0  0  0  0
   -4.0825    0.7794   -2.0271 C   0  0  0  0  0  0  0  0  0  0  0  0
    3.9383   -0.2538   -3.3723 H   0  0  0  0  0  0  0  0  0  0  0  0
    4.8061   -1.7826   -3.1413 H   0  0  0  0  0  0  0  0  0  0  0  0
    3.0916   -1.6554   -2.7158 H   0  0  0  0  0  0  0  0  0  0  0  0
    5.3943   -0.1882   -1.3231 H   0  0  0  0  0  0  0  0  0  0  0  0
    4.4812   -1.5813   -0.6691 H   0  0  0  0  0  0  0  0  0  0  0  0
    3.3766    1.8957    1.2238 H   0  0  0  0  0  0  0  0  0  0  0  0
    1.8560    2.3799    2.0281 H   0  0  0  0  0  0  0  0  0  0  0  0
    1.6802    0.0445    2.9804 H   0  0  0  0  0  0  0  0  0  0  0  0
    3.2547   -0.3439    2.2671 H   0  0  0  0  0  0  0  0  0  0  0  0
    3.1344    0.8940    3.5253 H   0  0  0  0  0  0  0  0  0  0  0  0
   -0.2311   -3.0464    0.4770 H   0  0  0  0  0  0  0  0  0  0  0  0
   -0.3100   -1.7423   -0.7666 H   0  0  0  0  0  0  0  0  0  0  0  0
   -5.0367   -0.1485    1.3999 H   0  0  0  0  0  0  0  0  0  0  0  0
   -3.7507   -1.3444    1.0765 H   0  0  0  0  0  0  0  0  0  0  0  0
   -2.8753   -1.0210    3.3892 H   0  0  0  0  0  0  0  0  0  0  0  0
   -4.1147    0.2014    3.6941 H   0  0  0  0  0  0  0  0  0  0  0  0
   -4.5840   -1.4881    3.4387 H   0  0  0  0  0  0  0  0  0  0  0  0
   -1.9637    0.9569   -2.4281 H   0  0  0  0  0  0  0  0  0  0  0  0
   -2.6486   -0.6317   -2.8556 H   0  0  0  0  0  0  0  0  0  0  0  0
   -4.3807    1.1788   -2.9912 H   0  0  0  0  0  0  0  0  0  0  0  0
   -4.7918    0.0167   -1.7161 H   0  0  0  0  0  0  0  0  0  0  0  0
   -4.0799    1.5869   -1.2952 H   0  0  0  0  0  0  0  0  0  0  0  0
  1  2  1  0  0  0  0
  2  3  1  0  0  0  0
  3  4  2  0  0  0  0
  4  5  2  0  0  0  0
  4  6  2  0  0  0  0
  6  7  1  0  0  0  0
  7  8  1  0  0  0  0
  4  9  1  0  0  0  0
  9 10  1  0  0  0  0
 10 11  1  0  0  0  0
 11 12  1  0  0  0  0
 12 13  2  0  0  0  0
 12 14  2  0  0  0  0
 14 15  1  0  0  0  0
 15 16  1  0  0  0  0
 12 17  1  0  0  0  0
 17 18  1  0  0  0  0
 18 19  1  0  0  0  0
  1 20  1  0  0  0  0
  1 21  1  0  0  0  0
  1 22  1  0  0  0  0
  2 23  1  0  0  0  0
  2 24  1  0  0  0  0
  7 25  1  0  0  0  0
  7 26  1  0  0  0  0
  8 27  1  0  0  0  0
  8 28  1  0  0  0  0
  8 29  1  0  0  0  0
 10 30  1  0  0  0  0
 10 31  1  0  0  0  0
 15 32  1  0  0  0  0
 15 33  1  0  0  0  0
 16 34  1  0  0  0  0
 16 35  1  0  0  0  0
 16 36  1  0  0  0  0
 18 37  1  0  0  0  0
 18 38  1  0  0  0  0
 19 39  1  0  0  0  0
 19 40  1  0  0  0  0
 19 41  1  0  0  0  0
M  END
