41
 xtb: 6.7.1 (edcfbbe)
C            4.64919755392207       -0.69989965000895       -2.37770501150324
C            4.68985998908112       -1.20450987297213       -0.95695067540514
O            3.34596112675943       -1.48568991594147       -0.43174455133006
P            2.35264513470280       -0.33562831847548        0.10208222324034
S            3.16231224074661        1.27827233332314        0.83218159837868
O            1.39965181951349       -1.17906448585471        1.08239639948248
C            1.67512309783968       -1.29017349588193        2.52277907963988
C            2.86193623133178       -2.17817087319404        2.80596721837663
S            1.08659536475181       -0.07662027236337       -1.57776970467928
C            0.24325530314986        1.49017433808762       -1.12595165906499
S           -0.87384222245984        1.45953277583687        0.32704356464269
P           -2.49671781297053        0.31687102802257       -0.44496885546588
S           -2.89927918588226        0.60738381037904       -2.32602708210541
O           -3.62156148120517        0.59232282698494        0.66990210146260
C           -4.08470664627051        1.91395582349077        1.12279364685630
C           -4.85912152731924        2.66150998948207        0.06737252370830
O           -2.19887740139047       -1.23778870259277       -0.18672205657041
C           -1.91444435660693       -1.77221495342655        1.15845679524797
C           -3.10082879763283       -2.56157062750985        1.65146712427231
H            4.10055820634623       -1.39116949730328       -3.02421241710746
H            4.18998489737730        0.29062359472459       -2.44168791987382
H            5.67681746459338       -0.62404816612624       -2.74838891918934
H            5.17973922894264       -0.49559156780374       -0.28290583331451
H            5.19563410996793       -2.16962181562069       -0.88771373816396
H            1.81035385596800       -0.28094866852953        2.92385064483910
H            0.75127610216899       -1.71234220367973        2.92424162584449
H            2.73070789869644       -3.16426601334107        2.35138392180771
H            3.79450815966990       -1.73747146913431        2.44050881732149
H            2.94925207355466       -2.30643572323373        3.88990954970363
H           -0.32325760290925        1.78641455477255       -2.01400128119395
H            0.99548766368359        2.25145582666192       -0.90035127459747
H           -4.71336102955858        1.67057448813688        1.98145047909851
H           -3.21970939274823        2.48391332877909        1.47445313015464
H           -4.22028906287091        2.97400747591760       -0.76194024555157
H           -5.68026980454982        2.05345004957063       -0.32245983508708
H           -5.28353433731240        3.55825781201948        0.53077184806343
H           -1.03468874902995       -2.40503438199278        1.02474153257856
H           -1.65783876030251       -0.95102983400311        1.83465877376345
H           -2.84912544182464       -3.00633560740201        2.61994446183943
H           -3.97792719708537       -1.92237076751403        1.78172252160233
H           -3.34593710039859       -3.36966686146347        0.95650219650565
