 xtb: 6.7.1 (edcfbbe)
          04092509473D

 38 37  0     0  0            999 V2000
    5.3581   -2.2733   -1.7627 C   0  0  0  0  0  0  0  0  0  0  0  0
    4.9216   -1.1285   -0.8619 C   0  0  0  0  0  0  0  0  0  0  0  0
    3.6620   -1.4239   -0.2278 O   0  0  0  0  0  0  0  0  0  0  0  0
    2.5510   -1.1455   -0.8800 C   0  0  0  0  0  0  0  0  0  0  0  0
    2.5008   -0.6158   -1.9674 O   0  0  0  0  0  0  0  0  0  0  0  0
    1.3309   -1.5956   -0.0979 C   0  0  0  0  0  0  0  0  0  0  0  0
    0.2497   -0.5246   -0.1475 C   0  0  0  0  0  0  0  0  0  0  0  0
    0.0895   -0.2006   -1.1853 H   0  0  0  0  0  0  0  0  0  0  0  0
    0.5983    0.7233    0.6455 C   0  0  0  0  0  0  0  0  0  0  0  0
   -0.2277    1.3509    1.2732 O   0  0  0  0  0  0  0  0  0  0  0  0
    1.8668    1.0301    0.5262 O   0  0  0  0  0  0  0  0  0  0  0  0
    2.3776    2.2140    1.1805 C   0  0  0  0  0  0  0  0  0  0  0  0
    2.8491    1.8944    2.5895 C   0  0  0  0  0  0  0  0  0  0  0  0
   -1.3241   -1.2007    0.4759 S   0  0  0  0  0  0  0  0  0  0  0  0
   -2.6327    0.3739   -0.0696 P   0  0  0  0  0  0  0  0  0  0  0  0
   -2.0671    1.5029   -1.5634 S   0  0  0  0  0  0  0  0  0  0  0  0
   -3.9987   -0.4310   -0.3263 O   0  0  0  0  0  0  0  0  0  0  0  0
   -4.1950   -1.2848   -1.4586 C   0  0  0  0  0  0  0  0  0  0  0  0
   -3.0526    1.1898    1.2130 O   0  0  0  0  0  0  0  0  0  0  0  0
   -3.4833    0.5411    2.4252 C   0  0  0  0  0  0  0  0  0  0  0  0
    5.4218   -3.1960   -1.1927 H   0  0  0  0  0  0  0  0  0  0  0  0
    4.6440   -2.4047   -2.5725 H   0  0  0  0  0  0  0  0  0  0  0  0
    6.3307   -2.0459   -2.1863 H   0  0  0  0  0  0  0  0  0  0  0  0
    4.8142   -0.2033   -1.4349 H   0  0  0  0  0  0  0  0  0  0  0  0
    5.6182   -0.9874   -0.0355 H   0  0  0  0  0  0  0  0  0  0  0  0
    1.6168   -1.8262    0.9271 H   0  0  0  0  0  0  0  0  0  0  0  0
    0.9442   -2.5006   -0.5712 H   0  0  0  0  0  0  0  0  0  0  0  0
    3.2065    2.5320    0.5468 H   0  0  0  0  0  0  0  0  0  0  0  0
    1.5938    2.9762    1.1877 H   0  0  0  0  0  0  0  0  0  0  0  0
    2.0074    1.5974    3.2107 H   0  0  0  0  0  0  0  0  0  0  0  0
    3.5780    1.0889    2.5669 H   0  0  0  0  0  0  0  0  0  0  0  0
    3.3079    2.7795    3.0181 H   0  0  0  0  0  0  0  0  0  0  0  0
   -5.2495   -1.5510   -1.4421 H   0  0  0  0  0  0  0  0  0  0  0  0
   -3.5745   -2.1762   -1.3686 H   0  0  0  0  0  0  0  0  0  0  0  0
   -3.9522   -0.7511   -2.3784 H   0  0  0  0  0  0  0  0  0  0  0  0
   -3.5812    1.3409    3.1543 H   0  0  0  0  0  0  0  0  0  0  0  0
   -2.7311   -0.1801    2.7457 H   0  0  0  0  0  0  0  0  0  0  0  0
   -4.4365    0.0424    2.2592 H   0  0  0  0  0  0  0  0  0  0  0  0
  1  2  1  0  0  0  0
  2  3  1  0  0  0  0
  3  4  1  0  0  0  0
  4  5  2  0  0  0  0
  4  6  1  0  0  0  0
  6  7  1  0  0  0  0
  7  8  1  0  0  0  0
  7  9  1  0  0  0  0
  9 10  2  0  0  0  0
  9 11  4  0  0  0  0
 11 12  1  0  0  0  0
 12 13  1  0  0  0  0
  7 14  1  0  0  0  0
 14 15  1  0  0  0  0
 15 16  2  0  0  0  0
 15 17  1  0  0  0  0
 17 18  1  0  0  0  0
 15 19  2  0  0  0  0
 19 20  1  0  0  0  0
  1 21  1  0  0  0  0
  1 22  1  0  0  0  0
  1 23  1  0  0  0  0
  2 24  1  0  0  0  0
  2 25  1  0  0  0  0
  6 26  1  0  0  0  0
  6 27  1  0  0  0  0
 12 28  1  0  0  0  0
 12 29  1  0  0  0  0
 13 30  1  0  0  0  0
 13 31  1  0  0  0  0
 13 32  1  0  0  0  0
 18 33  1  0  0  0  0
 18 34  1  0  0  0  0
 18 35  1  0  0  0  0
 20 36  1  0  0  0  0
 20 37  1  0  0  0  0
 20 38  1  0  0  0  0
M  END
