41
 xtb: 6.7.1 (edcfbbe)
C            4.36978691647622       -1.13931234759102       -2.70983833035806
C            4.49321655315136       -1.61560025714271       -1.28422731025707
O            3.18183423280381       -1.76481214637264       -0.63663621356391
P            2.33503927376541       -0.52023493616667       -0.06378004426607
S            3.34858461822377        1.03176157163351        0.53762798561599
O            1.41321091577818       -1.25467171359941        1.02534768154240
C            2.00735560006919       -1.72813905953614        2.29138531009673
C            1.33247708398874       -1.02892862559029        3.44250311109228
S            0.93850640507723       -0.19151583360154       -1.62200764757670
C            0.29436200848385        1.46782186944502       -1.17837683447081
S           -0.81645496307770        1.56862083189810        0.27801417470950
P           -2.52278611730164        0.51981089810204       -0.44321489015770
S           -2.93662251667253        0.78776538287716       -2.32248673107913
O           -3.60996725749973        0.95832531422778        0.65878613942188
C           -4.24329335591555        2.28481893911841        0.61440105889587
C           -5.23537209603176        2.34008665075174        1.74600805133146
O           -2.33895124931677       -1.03453967696290       -0.10067491954363
C           -2.08377695567728       -1.49560797628122        1.27655681802550
C           -1.59724288123153       -2.91807625788864        1.18872286917180
H            5.36257909396511       -1.16433468646694       -3.17109084665572
H            3.70651117930330       -1.79126901341880       -3.28569611489803
H            3.99648324354771       -0.11268201598793       -2.76180347144156
H            5.10021465295881       -0.93852325563728       -0.67616484901138
H            4.91736748202460       -2.62025638635521       -1.23130521894939
H            1.83457775143514       -2.80739444316201        2.30562181721732
H            3.08617099749324       -1.54298044585974        2.28324719563946
H            0.25517303676612       -1.21849142951836        3.43862075173430
H            1.74532277471992       -1.41118504271693        4.38177964476499
H            1.50600954795388        0.05025853734767        3.40052757894848
H           -0.23716718675897        1.82289631795775       -2.06597561809440
H            1.13170676849872        2.13778851293221       -0.96090001968113
H           -3.46302457904591        3.04539238164745        0.72097680523976
H           -4.72775892734741        2.39689165654010       -0.36023226834839
H           -6.00539546136792        1.57253179319904        1.62849168853456
H           -4.73779233300376        2.20493728415454        2.71035465647284
H           -5.72085337024580        3.32065698947760        1.74202596185360
H           -1.33524562835459       -0.83828435369060        1.72997428278083
H           -3.02183800431109       -1.41621101855862        1.83281432807303
H           -0.67937943933047       -2.98318526444424        0.59817766902574
H           -1.38731314545614       -3.28363309510074        2.19889007906194
H           -2.35769436149324       -3.56393036160395        0.74048667393031
