 xtb: 6.7.1 (edcfbbe)
          04092505203D

 41 40  0     0  0            999 V2000
    3.4174   -1.9578   -2.3829 C   0  0  0  0  0  0  0  0  0  0  0  0
    4.0325   -0.6889   -1.8273 C   0  0  0  0  0  0  0  0  0  0  0  0
    3.6284   -0.4342   -0.4730 O   0  0  0  0  0  0  0  0  0  0  0  0
    2.1392   -0.0340   -0.0634 P   0  0  0  0  0  0  0  0  0  0  0  0
    1.2874    1.1750   -1.3566 S   0  0  0  0  0  0  0  0  0  0  0  0
    2.3882    0.4611    1.4149 O   0  0  0  0  0  0  0  0  0  0  0  0
    2.6419    1.8374    1.7525 C   0  0  0  0  0  0  0  0  0  0  0  0
    3.9430    2.3410    1.1641 C   0  0  0  0  0  0  0  0  0  0  0  0
    1.1746   -1.8660    0.3451 S   0  0  0  0  0  0  0  0  0  0  0  0
   -0.1695   -1.7941   -0.8920 C   0  0  0  0  0  0  0  0  0  0  0  0
   -1.8375   -1.7687   -0.1860 S   0  0  0  0  0  0  0  0  0  0  0  0
   -1.9902    0.2705    0.4053 P   0  0  0  0  0  0  0  0  0  0  0  0
   -0.7338    0.9066    1.7666 S   0  0  0  0  0  0  0  0  0  0  0  0
   -3.5157    0.3408    0.8443 O   0  0  0  0  0  0  0  0  0  0  0  0
   -3.9770   -0.2776    2.0627 C   0  0  0  0  0  0  0  0  0  0  0  0
   -5.3110    0.3434    2.4239 C   0  0  0  0  0  0  0  0  0  0  0  0
   -1.9640    1.1673   -0.8825 O   0  0  0  0  0  0  0  0  0  0  0  0
   -2.9080    1.0780   -1.9839 C   0  0  0  0  0  0  0  0  0  0  0  0
   -2.3174    0.2929   -3.1383 C   0  0  0  0  0  0  0  0  0  0  0  0
    3.5894   -2.7888   -1.7036 H   0  0  0  0  0  0  0  0  0  0  0  0
    2.3446   -1.8237   -2.5133 H   0  0  0  0  0  0  0  0  0  0  0  0
    3.8643   -2.1799   -3.3466 H   0  0  0  0  0  0  0  0  0  0  0  0
    3.7512    0.1744   -2.4392 H   0  0  0  0  0  0  0  0  0  0  0  0
    5.1191   -0.7623   -1.7652 H   0  0  0  0  0  0  0  0  0  0  0  0
    1.7925    2.4380    1.4096 H   0  0  0  0  0  0  0  0  0  0  0  0
    2.6586    1.8343    2.8433 H   0  0  0  0  0  0  0  0  0  0  0  0
    4.7609    1.6854    1.4516 H   0  0  0  0  0  0  0  0  0  0  0  0
    3.8749    2.3657    0.0769 H   0  0  0  0  0  0  0  0  0  0  0  0
    4.1352    3.3452    1.5287 H   0  0  0  0  0  0  0  0  0  0  0  0
   -0.1231   -2.7063   -1.4807 H   0  0  0  0  0  0  0  0  0  0  0  0
   -0.0250   -0.9024   -1.5087 H   0  0  0  0  0  0  0  0  0  0  0  0
   -4.0697   -1.3518    1.8827 H   0  0  0  0  0  0  0  0  0  0  0  0
   -3.2295   -0.1070    2.8446 H   0  0  0  0  0  0  0  0  0  0  0  0
   -5.1941    1.4121    2.5813 H   0  0  0  0  0  0  0  0  0  0  0  0
   -6.0260    0.1809    1.6229 H   0  0  0  0  0  0  0  0  0  0  0  0
   -5.6806   -0.1149    3.3352 H   0  0  0  0  0  0  0  0  0  0  0  0
   -3.8353    0.6322   -1.6218 H   0  0  0  0  0  0  0  0  0  0  0  0
   -3.0793    2.1189   -2.2622 H   0  0  0  0  0  0  0  0  0  0  0  0
   -2.2536   -0.7649   -2.8962 H   0  0  0  0  0  0  0  0  0  0  0  0
   -2.9529    0.4172   -4.0093 H   0  0  0  0  0  0  0  0  0  0  0  0
   -1.3232    0.6704   -3.3672 H   0  0  0  0  0  0  0  0  0  0  0  0
  1  2  1  0  0  0  0
  2  3  1  0  0  0  0
  3  4  2  0  0  0  0
  4  5  2  0  0  0  0
  4  6  2  0  0  0  0
  6  7  1  0  0  0  0
  7  8  1  0  0  0  0
  4  9  1  0  0  0  0
  9 10  1  0  0  0  0
 10 11  1  0  0  0  0
 11 12  1  0  0  0  0
 12 13  2  0  0  0  0
 12 14  2  0  0  0  0
 14 15  1  0  0  0  0
 15 16  1  0  0  0  0
 12 17  2  0  0  0  0
 17 18  1  0  0  0  0
 18 19  1  0  0  0  0
  1 20  1  0  0  0  0
  1 21  1  0  0  0  0
  1 22  1  0  0  0  0
  2 23  1  0  0  0  0
  2 24  1  0  0  0  0
  7 25  1  0  0  0  0
  7 26  1  0  0  0  0
  8 27  1  0  0  0  0
  8 28  1  0  0  0  0
  8 29  1  0  0  0  0
 10 30  1  0  0  0  0
 10 31  1  0  0  0  0
 15 32  1  0  0  0  0
 15 33  1  0  0  0  0
 16 34  1  0  0  0  0
 16 35  1  0  0  0  0
 16 36  1  0  0  0  0
 18 37  1  0  0  0  0
 18 38  1  0  0  0  0
 19 39  1  0  0  0  0
 19 40  1  0  0  0  0
 19 41  1  0  0  0  0
M  END
