14
 xtb: 6.7.1 (edcfbbe)
C           -0.72768318693839       -1.82410345807834       -0.00004873465602
C            0.60473817789153       -1.43406284512879       -0.00016525240945
C            0.89961223370947       -0.06327755457931       -0.00029618292379
C           -0.11139947197872        0.90375716078659       -0.00012119786420
C           -1.43780010214191        0.48288873875687        0.00000812589023
C           -1.74817367797518       -0.87913316200220       -0.00001217446723
O           -2.40197691892803        1.45442118668037        0.00003979944054
C            2.25768800350100        0.35689273726177       -0.00043655022965
N            3.36886286123381        0.69303086559655        0.00069476866592
H           -0.97937386077306       -2.87917574481036       -0.00004836582934
H            1.40617544280568       -2.16300510171355       -0.00021314157692
H            0.12897222564212        1.96067789801305       -0.00014472998833
H           -2.78869997329434       -1.19098864094842       -0.00001457213913
H           -3.27703316631908        1.04007330242419        0.00005944119639
