 xtb: 6.7.1 (edcfbbe)
          04092505203D

 41 40  0     0  0            999 V2000
    3.1241    1.4782    2.9932 C   0  0  0  0  0  0  0  0  0  0  0  0
    1.7629    0.9385    2.6096 C   0  0  0  0  0  0  0  0  0  0  0  0
    1.6121    0.8985    1.1763 O   0  0  0  0  0  0  0  0  0  0  0  0
    2.3209   -0.1981    0.2767 P   0  0  0  0  0  0  0  0  0  0  0  0
    2.7057   -1.8780    1.2204 S   0  0  0  0  0  0  0  0  0  0  0  0
    3.5462    0.6372   -0.2885 O   0  0  0  0  0  0  0  0  0  0  0  0
    4.2817    0.3438   -1.4898 C   0  0  0  0  0  0  0  0  0  0  0  0
    4.7564   -1.0930   -1.5559 C   0  0  0  0  0  0  0  0  0  0  0  0
    0.9947   -0.3283   -1.3733 S   0  0  0  0  0  0  0  0  0  0  0  0
   -0.1294   -1.5224   -0.6023 C   0  0  0  0  0  0  0  0  0  0  0  0
   -1.1742   -0.7798    0.6702 S   0  0  0  0  0  0  0  0  0  0  0  0
   -2.4553    0.2811   -0.6721 P   0  0  0  0  0  0  0  0  0  0  0  0
   -2.8131   -0.6066   -2.3783 S   0  0  0  0  0  0  0  0  0  0  0  0
   -1.8070    1.6978   -0.9063 O   0  0  0  0  0  0  0  0  0  0  0  0
   -1.1511    2.5586    0.0554 C   0  0  0  0  0  0  0  0  0  0  0  0
   -1.9464    2.7454    1.3290 C   0  0  0  0  0  0  0  0  0  0  0  0
   -3.7459    0.6146    0.1923 O   0  0  0  0  0  0  0  0  0  0  0  0
   -4.8714   -0.2768    0.2744 C   0  0  0  0  0  0  0  0  0  0  0  0
   -4.5397   -1.5589    1.0107 C   0  0  0  0  0  0  0  0  0  0  0  0
    3.1947    1.5506    4.0738 H   0  0  0  0  0  0  0  0  0  0  0  0
    3.8988    0.8038    2.6295 H   0  0  0  0  0  0  0  0  0  0  0  0
    3.2789    2.4585    2.5508 H   0  0  0  0  0  0  0  0  0  0  0  0
    0.9539    1.5876    2.9463 H   0  0  0  0  0  0  0  0  0  0  0  0
    1.6172   -0.0717    3.0054 H   0  0  0  0  0  0  0  0  0  0  0  0
    3.6423    0.5796   -2.3454 H   0  0  0  0  0  0  0  0  0  0  0  0
    5.1214    1.0403   -1.4530 H   0  0  0  0  0  0  0  0  0  0  0  0
    3.9038   -1.7684   -1.6186 H   0  0  0  0  0  0  0  0  0  0  0  0
    5.3773   -1.2274   -2.4359 H   0  0  0  0  0  0  0  0  0  0  0  0
    5.3316   -1.3451   -0.6680 H   0  0  0  0  0  0  0  0  0  0  0  0
    0.4538   -2.3081   -0.1203 H   0  0  0  0  0  0  0  0  0  0  0  0
   -0.7589   -1.9191   -1.3997 H   0  0  0  0  0  0  0  0  0  0  0  0
   -0.1635    2.1396    0.2666 H   0  0  0  0  0  0  0  0  0  0  0  0
   -1.0382    3.4963   -0.4913 H   0  0  0  0  0  0  0  0  0  0  0  0
   -2.0249    1.8026    1.8676 H   0  0  0  0  0  0  0  0  0  0  0  0
   -1.4411    3.4733    1.9567 H   0  0  0  0  0  0  0  0  0  0  0  0
   -2.9469    3.1024    1.0990 H   0  0  0  0  0  0  0  0  0  0  0  0
   -5.6262    0.3070    0.8031 H   0  0  0  0  0  0  0  0  0  0  0  0
   -5.2139   -0.4956   -0.7418 H   0  0  0  0  0  0  0  0  0  0  0  0
   -3.8404   -2.1547    0.4260 H   0  0  0  0  0  0  0  0  0  0  0  0
   -4.0916   -1.3381    1.9761 H   0  0  0  0  0  0  0  0  0  0  0  0
   -5.4493   -2.1321    1.1580 H   0  0  0  0  0  0  0  0  0  0  0  0
  1  2  1  0  0  0  0
  2  3  1  0  0  0  0
  3  4  2  0  0  0  0
  4  5  2  0  0  0  0
  4  6  2  0  0  0  0
  6  7  1  0  0  0  0
  7  8  1  0  0  0  0
  4  9  1  0  0  0  0
  9 10  1  0  0  0  0
 10 11  1  0  0  0  0
 11 12  1  0  0  0  0
 12 13  2  0  0  0  0
 12 14  2  0  0  0  0
 14 15  1  0  0  0  0
 15 16  1  0  0  0  0
 12 17  2  0  0  0  0
 17 18  1  0  0  0  0
 18 19  1  0  0  0  0
  1 20  1  0  0  0  0
  1 21  1  0  0  0  0
  1 22  1  0  0  0  0
  2 23  1  0  0  0  0
  2 24  1  0  0  0  0
  7 25  1  0  0  0  0
  7 26  1  0  0  0  0
  8 27  1  0  0  0  0
  8 28  1  0  0  0  0
  8 29  1  0  0  0  0
 10 30  1  0  0  0  0
 10 31  1  0  0  0  0
 15 32  1  0  0  0  0
 15 33  1  0  0  0  0
 16 34  1  0  0  0  0
 16 35  1  0  0  0  0
 16 36  1  0  0  0  0
 18 37  1  0  0  0  0
 18 38  1  0  0  0  0
 19 39  1  0  0  0  0
 19 40  1  0  0  0  0
 19 41  1  0  0  0  0
M  END
