41
 xtb: 6.7.1 (edcfbbe)
C            4.32079874018723       -1.13038324813624       -2.96808723025214
C            4.51998975434300       -1.57950024083398       -1.54207423265077
O            3.24568902640827       -1.73036449776617       -0.82474097496045
P            2.40636027288485       -0.47668167756009       -0.25707972158926
S            3.42655221810907        1.10230545303962        0.25457449383942
O            1.52993320923592       -1.18868580287991        0.88345578167873
C            2.13353964521349       -1.56460688278844        2.17390516101374
C            1.14900866425236       -1.21747536642833        3.26070221791872
S            0.93646916716161       -0.21231419301159       -1.75696058773175
C            0.33496054721589        1.48254617769966       -1.39138818768461
S           -0.50825035464434        1.77505648016804        0.21286057120078
P           -2.20976088671561        0.52920797157619        0.03442529262565
S           -2.99966726073627        0.37222304425046       -1.73947105669968
O           -3.16275969751630        1.09049269110831        1.20701003670929
C           -4.26803754846539        2.02742314126604        0.95821867425556
C           -3.78113263927397        3.43978717250264        0.75125499372512
O           -1.65142518035000       -0.81585647599316        0.70949261035104
C           -2.49488523339532       -2.01912092442086        0.80749368672079
C           -1.59290605989883       -3.21796960998441        0.66464213616047
H            3.92576409398214       -0.11189999108259       -3.01897299231013
H            5.29165571483242       -1.14441440507242       -3.47428252801039
H            3.64425872281283       -1.80388320532301       -3.50219878831912
H            5.14906417783155       -0.88475184437868       -0.97783452860931
H            4.95807172711442       -2.57834991486869       -1.49254982286514
H            2.33422343410264       -2.63842020396672        2.12244303614097
H            3.07888469479886       -1.02795829970495        2.30253955048911
H            1.56110996164291       -1.52506312934042        4.22706310243573
H            0.96529938420183       -0.13936191067058        3.28789524953258
H            0.19801019449927       -1.73697778139892        3.11011723348354
H           -0.34746953369710        1.72337510416713       -2.21160024288278
H            1.17746142907628        2.18038839901217       -1.40018101221261
H           -4.83940022098482        1.66115353523616        0.10025514416621
H           -4.88027002407864        1.94102213516739        1.85806676799902
H           -3.16619402910578        3.77178157400103        1.59284587969313
H           -3.20497517236359        3.53732446168613       -0.17322602731721
H           -4.65239900072980        4.09916810554479        0.67993593178310
H           -2.98771105846382       -1.98426146564806        1.78352015198280
H           -3.25334888396905       -1.99183778810767        0.01859856799195
H           -1.11830393908641       -3.23190587957972       -0.32093509529049
H           -0.81600817514428       -3.22004534292605        1.43491729784200
H           -2.19080061903617       -4.12812989162334        0.77526905132241
