 xtb: 6.7.1 (edcfbbe)
          04092505213D

 41 40  0     0  0            999 V2000
    4.4613   -0.3065   -2.4994 C   0  0  0  0  0  0  0  0  0  0  0  0
    3.7423   -1.5952   -2.1577 C   0  0  0  0  0  0  0  0  0  0  0  0
    3.3101   -1.6500   -0.7858 O   0  0  0  0  0  0  0  0  0  0  0  0
    2.4516   -0.5411   -0.0399 P   0  0  0  0  0  0  0  0  0  0  0  0
    3.3967    1.0672    0.5792 S   0  0  0  0  0  0  0  0  0  0  0  0
    1.8427   -1.4229    1.1274 O   0  0  0  0  0  0  0  0  0  0  0  0
    2.2650   -1.3490    2.5061 C   0  0  0  0  0  0  0  0  0  0  0  0
    1.2166   -0.6516    3.3494 C   0  0  0  0  0  0  0  0  0  0  0  0
    0.8109   -0.2429   -1.3396 S   0  0  0  0  0  0  0  0  0  0  0  0
    0.1825    1.2635   -0.5524 C   0  0  0  0  0  0  0  0  0  0  0  0
   -0.8187    0.9296    0.9184 S   0  0  0  0  0  0  0  0  0  0  0  0
   -2.6447    0.4060   -0.0525 P   0  0  0  0  0  0  0  0  0  0  0  0
   -2.8080    0.9984   -1.9197 S   0  0  0  0  0  0  0  0  0  0  0  0
   -3.7699    0.8902    0.9441 O   0  0  0  0  0  0  0  0  0  0  0  0
   -4.3501    2.2051    0.8621 C   0  0  0  0  0  0  0  0  0  0  0  0
   -3.3661    3.2953    1.2377 C   0  0  0  0  0  0  0  0  0  0  0  0
   -2.8746   -1.1401    0.2043 O   0  0  0  0  0  0  0  0  0  0  0  0
   -2.2498   -2.1794   -0.5730 C   0  0  0  0  0  0  0  0  0  0  0  0
   -1.2337   -2.9290    0.2667 C   0  0  0  0  0  0  0  0  0  0  0  0
    5.2874   -0.1389   -1.8122 H   0  0  0  0  0  0  0  0  0  0  0  0
    4.8441   -0.3655   -3.5132 H   0  0  0  0  0  0  0  0  0  0  0  0
    3.7767    0.5378   -2.4287 H   0  0  0  0  0  0  0  0  0  0  0  0
    4.4039   -2.4581   -2.2522 H   0  0  0  0  0  0  0  0  0  0  0  0
    2.8646   -1.7300   -2.7960 H   0  0  0  0  0  0  0  0  0  0  0  0
    2.4023   -2.3866    2.8140 H   0  0  0  0  0  0  0  0  0  0  0  0
    3.2200   -0.8182    2.5609 H   0  0  0  0  0  0  0  0  0  0  0  0
    1.1180    0.3881    3.0442 H   0  0  0  0  0  0  0  0  0  0  0  0
    0.2523   -1.1389    3.2352 H   0  0  0  0  0  0  0  0  0  0  0  0
    1.5177   -0.6893    4.3913 H   0  0  0  0  0  0  0  0  0  0  0  0
   -0.4290    1.7706   -1.2994 H   0  0  0  0  0  0  0  0  0  0  0  0
    1.0255    1.8784   -0.2345 H   0  0  0  0  0  0  0  0  0  0  0  0
   -4.7234    2.3573   -0.1557 H   0  0  0  0  0  0  0  0  0  0  0  0
   -5.1873    2.1624    1.5601 H   0  0  0  0  0  0  0  0  0  0  0  0
   -2.9116    3.0788    2.2012 H   0  0  0  0  0  0  0  0  0  0  0  0
   -2.5814    3.3673    0.4858 H   0  0  0  0  0  0  0  0  0  0  0  0
   -3.8882    4.2453    1.2906 H   0  0  0  0  0  0  0  0  0  0  0  0
   -3.0659   -2.8384   -0.8776 H   0  0  0  0  0  0  0  0  0  0  0  0
   -1.7899   -1.7446   -1.4675 H   0  0  0  0  0  0  0  0  0  0  0  0
   -1.7072   -3.3034    1.1699 H   0  0  0  0  0  0  0  0  0  0  0  0
   -0.8440   -3.7627   -0.3085 H   0  0  0  0  0  0  0  0  0  0  0  0
   -0.4065   -2.2813    0.5471 H   0  0  0  0  0  0  0  0  0  0  0  0
  1  2  1  0  0  0  0
  2  3  1  0  0  0  0
  3  4  2  0  0  0  0
  4  5  2  0  0  0  0
  4  6  2  0  0  0  0
  6  7  1  0  0  0  0
  7  8  1  0  0  0  0
  4  9  1  0  0  0  0
  9 10  1  0  0  0  0
 10 11  1  0  0  0  0
 11 12  1  0  0  0  0
 12 13  2  0  0  0  0
 12 14  2  0  0  0  0
 14 15  1  0  0  0  0
 15 16  1  0  0  0  0
 12 17  2  0  0  0  0
 17 18  1  0  0  0  0
 18 19  1  0  0  0  0
  1 20  1  0  0  0  0
  1 21  1  0  0  0  0
  1 22  1  0  0  0  0
  2 23  1  0  0  0  0
  2 24  1  0  0  0  0
  7 25  1  0  0  0  0
  7 26  1  0  0  0  0
  8 27  1  0  0  0  0
  8 28  1  0  0  0  0
  8 29  1  0  0  0  0
 10 30  1  0  0  0  0
 10 31  1  0  0  0  0
 15 32  1  0  0  0  0
 15 33  1  0  0  0  0
 16 34  1  0  0  0  0
 16 35  1  0  0  0  0
 16 36  1  0  0  0  0
 18 37  1  0  0  0  0
 18 38  1  0  0  0  0
 19 39  1  0  0  0  0
 19 40  1  0  0  0  0
 19 41  1  0  0  0  0
M  END
