 xtb: 6.7.1 (edcfbbe)
          04092505213D

 41 40  0     0  0            999 V2000
    1.9098   -1.0612   -2.7032 C   0  0  0  0  0  0  0  0  0  0  0  0
    3.2614   -0.7293   -2.1045 C   0  0  0  0  0  0  0  0  0  0  0  0
    3.3088   -0.9928   -0.6915 O   0  0  0  0  0  0  0  0  0  0  0  0
    2.5461   -0.1006    0.3803 P   0  0  0  0  0  0  0  0  0  0  0  0
    2.6073    1.8341    0.0997 S   0  0  0  0  0  0  0  0  0  0  0  0
    3.2489   -0.4879    1.7394 O   0  0  0  0  0  0  0  0  0  0  0  0
    3.3783   -1.8433    2.2385 C   0  0  0  0  0  0  0  0  0  0  0  0
    4.6794   -2.4732    1.7859 C   0  0  0  0  0  0  0  0  0  0  0  0
    0.6239   -0.9949    0.5285 S   0  0  0  0  0  0  0  0  0  0  0  0
   -0.1535    0.3866    1.4360 C   0  0  0  0  0  0  0  0  0  0  0  0
   -1.9424    0.2313    1.4660 S   0  0  0  0  0  0  0  0  0  0  0  0
   -2.3611    0.7246   -0.5783 P   0  0  0  0  0  0  0  0  0  0  0  0
   -0.8789    1.4529   -1.6252 S   0  0  0  0  0  0  0  0  0  0  0  0
   -3.5744    1.7197   -0.5002 O   0  0  0  0  0  0  0  0  0  0  0  0
   -4.7837    1.4424    0.2589 C   0  0  0  0  0  0  0  0  0  0  0  0
   -4.8754    2.3825    1.4436 C   0  0  0  0  0  0  0  0  0  0  0  0
   -3.0619   -0.5652   -1.1953 O   0  0  0  0  0  0  0  0  0  0  0  0
   -2.3517   -1.7293   -1.6584 C   0  0  0  0  0  0  0  0  0  0  0  0
   -2.3010   -2.8027   -0.5886 C   0  0  0  0  0  0  0  0  0  0  0  0
    1.6000   -2.0594   -2.4036 H   0  0  0  0  0  0  0  0  0  0  0  0
    1.1642   -0.3389   -2.3723 H   0  0  0  0  0  0  0  0  0  0  0  0
    1.9759   -1.0127   -3.7853 H   0  0  0  0  0  0  0  0  0  0  0  0
    3.5095    0.3235   -2.2715 H   0  0  0  0  0  0  0  0  0  0  0  0
    4.0482   -1.3654   -2.5132 H   0  0  0  0  0  0  0  0  0  0  0  0
    3.3498   -1.7302    3.3237 H   0  0  0  0  0  0  0  0  0  0  0  0
    2.5172   -2.4274    1.9011 H   0  0  0  0  0  0  0  0  0  0  0  0
    4.7803   -3.4484    2.2520 H   0  0  0  0  0  0  0  0  0  0  0  0
    4.6892   -2.5887    0.7058 H   0  0  0  0  0  0  0  0  0  0  0  0
    5.5178   -1.8470    2.0788 H   0  0  0  0  0  0  0  0  0  0  0  0
    0.1331    1.3174    0.9398 H   0  0  0  0  0  0  0  0  0  0  0  0
    0.1768    0.3729    2.4723 H   0  0  0  0  0  0  0  0  0  0  0  0
   -5.6007    1.6070   -0.4450 H   0  0  0  0  0  0  0  0  0  0  0  0
   -4.7756    0.3987    0.5778 H   0  0  0  0  0  0  0  0  0  0  0  0
   -4.0664    2.1910    2.1442 H   0  0  0  0  0  0  0  0  0  0  0  0
   -4.8122    3.4132    1.1057 H   0  0  0  0  0  0  0  0  0  0  0  0
   -5.8248    2.2274    1.9460 H   0  0  0  0  0  0  0  0  0  0  0  0
   -2.9207   -2.0639   -2.5277 H   0  0  0  0  0  0  0  0  0  0  0  0
   -1.3472   -1.4313   -1.9745 H   0  0  0  0  0  0  0  0  0  0  0  0
   -3.3036   -3.0185   -0.2308 H   0  0  0  0  0  0  0  0  0  0  0  0
   -1.8703   -3.7031   -1.0139 H   0  0  0  0  0  0  0  0  0  0  0  0
   -1.6850   -2.4828    0.2489 H   0  0  0  0  0  0  0  0  0  0  0  0
  1  2  1  0  0  0  0
  2  3  1  0  0  0  0
  3  4  2  0  0  0  0
  4  5  2  0  0  0  0
  4  6  2  0  0  0  0
  6  7  1  0  0  0  0
  7  8  1  0  0  0  0
  4  9  1  0  0  0  0
  9 10  1  0  0  0  0
 10 11  1  0  0  0  0
 11 12  1  0  0  0  0
 12 13  2  0  0  0  0
 12 14  2  0  0  0  0
 14 15  1  0  0  0  0
 15 16  1  0  0  0  0
 12 17  2  0  0  0  0
 17 18  1  0  0  0  0
 18 19  1  0  0  0  0
  1 20  1  0  0  0  0
  1 21  1  0  0  0  0
  1 22  1  0  0  0  0
  2 23  1  0  0  0  0
  2 24  1  0  0  0  0
  7 25  1  0  0  0  0
  7 26  1  0  0  0  0
  8 27  1  0  0  0  0
  8 28  1  0  0  0  0
  8 29  1  0  0  0  0
 10 30  1  0  0  0  0
 10 31  1  0  0  0  0
 15 32  1  0  0  0  0
 15 33  1  0  0  0  0
 16 34  1  0  0  0  0
 16 35  1  0  0  0  0
 16 36  1  0  0  0  0
 18 37  1  0  0  0  0
 18 38  1  0  0  0  0
 19 39  1  0  0  0  0
 19 40  1  0  0  0  0
 19 41  1  0  0  0  0
M  END
