 xtb: 6.7.1 (edcfbbe)
          04092507313D

 38 37  0     0  0            999 V2000
    2.6061   -2.7466    0.5937 C   0  0  0  0  0  0  0  0  0  0  0  0
    3.3249   -1.7289   -0.2767 C   0  0  0  0  0  0  0  0  0  0  0  0
    2.3562   -0.8580   -0.8931 O   0  0  0  0  0  0  0  0  0  0  0  0
    2.1385   -0.9398   -2.1935 C   0  0  0  0  0  0  0  0  0  0  0  0
    2.7576   -1.6550   -2.9488 O   0  0  0  0  0  0  0  0  0  0  0  0
    1.0271   -0.0140   -2.6453 C   0  0  0  0  0  0  0  0  0  0  0  0
    0.1754    0.4992   -1.4902 C   0  0  0  0  0  0  0  0  0  0  0  0
   -0.5888    1.1862   -1.8709 H   0  0  0  0  0  0  0  0  0  0  0  0
    1.0306    1.2849   -0.5114 C   0  0  0  0  0  0  0  0  0  0  0  0
    1.8306    2.1109   -0.8903 O   0  0  0  0  0  0  0  0  0  0  0  0
    0.7887    0.9997    0.7489 O   0  0  0  0  0  0  0  0  0  0  0  0
    1.5394    1.7201    1.7494 C   0  0  0  0  0  0  0  0  0  0  0  0
    1.6226    0.8817    3.0087 C   0  0  0  0  0  0  0  0  0  0  0  0
   -0.6930   -0.8839   -0.6820 S   0  0  0  0  0  0  0  0  0  0  0  0
   -1.9281    0.2473    0.6304 P   0  0  0  0  0  0  0  0  0  0  0  0
   -2.1527    2.1529    0.2310 S   0  0  0  0  0  0  0  0  0  0  0  0
   -3.2991   -0.5836    0.5934 O   0  0  0  0  0  0  0  0  0  0  0  0
   -4.1298   -0.5936   -0.5711 C   0  0  0  0  0  0  0  0  0  0  0  0
   -1.4731   -0.0514    2.1118 O   0  0  0  0  0  0  0  0  0  0  0  0
   -1.3749   -1.4057    2.5997 C   0  0  0  0  0  0  0  0  0  0  0  0
    1.9887   -2.2366    1.3283 H   0  0  0  0  0  0  0  0  0  0  0  0
    1.9688   -3.3790   -0.0193 H   0  0  0  0  0  0  0  0  0  0  0  0
    3.3381   -3.3634    1.1041 H   0  0  0  0  0  0  0  0  0  0  0  0
    3.9070   -2.2133   -1.0653 H   0  0  0  0  0  0  0  0  0  0  0  0
    3.9708   -1.0794    0.3178 H   0  0  0  0  0  0  0  0  0  0  0  0
    0.4181   -0.5444   -3.3776 H   0  0  0  0  0  0  0  0  0  0  0  0
    1.4963    0.8403   -3.1410 H   0  0  0  0  0  0  0  0  0  0  0  0
    2.5268    1.9373    1.3310 H   0  0  0  0  0  0  0  0  0  0  0  0
    1.0176    2.6651    1.9297 H   0  0  0  0  0  0  0  0  0  0  0  0
    0.6267    0.7189    3.4085 H   0  0  0  0  0  0  0  0  0  0  0  0
    2.0864   -0.0766    2.7936 H   0  0  0  0  0  0  0  0  0  0  0  0
    2.2202    1.4110    3.7434 H   0  0  0  0  0  0  0  0  0  0  0  0
   -4.3082    0.4266   -0.9148 H   0  0  0  0  0  0  0  0  0  0  0  0
   -5.0631   -1.0573   -0.2621 H   0  0  0  0  0  0  0  0  0  0  0  0
   -3.6547   -1.1760   -1.3605 H   0  0  0  0  0  0  0  0  0  0  0  0
   -0.8953   -1.3307    3.5721 H   0  0  0  0  0  0  0  0  0  0  0  0
   -0.7730   -2.0046    1.9160 H   0  0  0  0  0  0  0  0  0  0  0  0
   -2.3695   -1.8367    2.6925 H   0  0  0  0  0  0  0  0  0  0  0  0
  1  2  1  0  0  0  0
  2  3  1  0  0  0  0
  3  4  1  0  0  0  0
  4  5  2  0  0  0  0
  4  6  1  0  0  0  0
  6  7  1  0  0  0  0
  7  8  1  0  0  0  0
  7  9  1  0  0  0  0
  9 10  2  0  0  0  0
  9 11  1  0  0  0  0
 11 12  1  0  0  0  0
 12 13  1  0  0  0  0
  7 14  1  0  0  0  0
 14 15  1  0  0  0  0
 15 16  2  0  0  0  0
 15 17  1  0  0  0  0
 17 18  1  0  0  0  0
 15 19  2  0  0  0  0
 19 20  1  0  0  0  0
  1 21  1  0  0  0  0
  1 22  1  0  0  0  0
  1 23  1  0  0  0  0
  2 24  1  0  0  0  0
  2 25  1  0  0  0  0
  6 26  1  0  0  0  0
  6 27  1  0  0  0  0
 12 28  1  0  0  0  0
 12 29  1  0  0  0  0
 13 30  1  0  0  0  0
 13 31  1  0  0  0  0
 13 32  1  0  0  0  0
 18 33  1  0  0  0  0
 18 34  1  0  0  0  0
 18 35  1  0  0  0  0
 20 36  1  0  0  0  0
 20 37  1  0  0  0  0
 20 38  1  0  0  0  0
M  END
