 xtb: 6.7.1 (edcfbbe)
          04092505203D

 41 40  0     0  0            999 V2000
    2.0859   -2.1000    2.8048 C   0  0  0  0  0  0  0  0  0  0  0  0
    0.9160   -1.8346    1.8814 C   0  0  0  0  0  0  0  0  0  0  0  0
    0.9971   -0.5132    1.3120 O   0  0  0  0  0  0  0  0  0  0  0  0
    2.0249   -0.1455    0.1697 P   0  0  0  0  0  0  0  0  0  0  0  0
    2.7501   -1.6483   -0.8654 S   0  0  0  0  0  0  0  0  0  0  0  0
    3.0464    0.7464    0.9949 O   0  0  0  0  0  0  0  0  0  0  0  0
    4.1555    1.4379    0.3869 C   0  0  0  0  0  0  0  0  0  0  0  0
    5.3987    0.5693    0.3670 C   0  0  0  0  0  0  0  0  0  0  0  0
    0.9653    1.3075   -0.9565 S   0  0  0  0  0  0  0  0  0  0  0  0
    0.1884    0.1462   -2.1106 C   0  0  0  0  0  0  0  0  0  0  0  0
   -0.8901   -1.0568   -1.2953 S   0  0  0  0  0  0  0  0  0  0  0  0
   -2.2847    0.3429   -0.5149 P   0  0  0  0  0  0  0  0  0  0  0  0
   -2.7081    1.8618   -1.6646 S   0  0  0  0  0  0  0  0  0  0  0  0
   -1.6452    0.6834    0.9099 O   0  0  0  0  0  0  0  0  0  0  0  0
   -1.5066    2.0209    1.4197 C   0  0  0  0  0  0  0  0  0  0  0  0
   -2.7848    2.4689    2.0987 C   0  0  0  0  0  0  0  0  0  0  0  0
   -3.5671   -0.5224   -0.1862 O   0  0  0  0  0  0  0  0  0  0  0  0
   -3.6156   -1.5727    0.8122 C   0  0  0  0  0  0  0  0  0  0  0  0
   -3.3592   -2.9317    0.1930 C   0  0  0  0  0  0  0  0  0  0  0  0
    1.9686   -3.0744    3.2682 H   0  0  0  0  0  0  0  0  0  0  0  0
    3.0120   -2.0881    2.2311 H   0  0  0  0  0  0  0  0  0  0  0  0
    2.1400   -1.3340    3.5737 H   0  0  0  0  0  0  0  0  0  0  0  0
   -0.0353   -1.8357    2.4152 H   0  0  0  0  0  0  0  0  0  0  0  0
    0.8860   -2.5673    1.0682 H   0  0  0  0  0  0  0  0  0  0  0  0
    3.8759    1.7499   -0.6237 H   0  0  0  0  0  0  0  0  0  0  0  0
    4.2986    2.3214    1.0119 H   0  0  0  0  0  0  0  0  0  0  0  0
    6.2256    1.1387   -0.0449 H   0  0  0  0  0  0  0  0  0  0  0  0
    5.6486    0.2515    1.3754 H   0  0  0  0  0  0  0  0  0  0  0  0
    5.2349   -0.3127   -0.2481 H   0  0  0  0  0  0  0  0  0  0  0  0
    0.9575   -0.4298   -2.6246 H   0  0  0  0  0  0  0  0  0  0  0  0
   -0.3958    0.7469   -2.8072 H   0  0  0  0  0  0  0  0  0  0  0  0
   -0.6681    1.9607    2.1159 H   0  0  0  0  0  0  0  0  0  0  0  0
   -1.2508    2.6929    0.5944 H   0  0  0  0  0  0  0  0  0  0  0  0
   -3.0483    1.7868    2.9024 H   0  0  0  0  0  0  0  0  0  0  0  0
   -2.6456    3.4663    2.5031 H   0  0  0  0  0  0  0  0  0  0  0  0
   -3.5958    2.4911    1.3716 H   0  0  0  0  0  0  0  0  0  0  0  0
   -2.8902   -1.3475    1.5968 H   0  0  0  0  0  0  0  0  0  0  0  0
   -4.6286   -1.5071    1.2129 H   0  0  0  0  0  0  0  0  0  0  0  0
   -2.3449   -2.9931   -0.1966 H   0  0  0  0  0  0  0  0  0  0  0  0
   -3.4960   -3.6974    0.9502 H   0  0  0  0  0  0  0  0  0  0  0  0
   -4.0549   -3.1057   -0.6232 H   0  0  0  0  0  0  0  0  0  0  0  0
  1  2  1  0  0  0  0
  2  3  1  0  0  0  0
  3  4  2  0  0  0  0
  4  5  2  0  0  0  0
  4  6  2  0  0  0  0
  6  7  1  0  0  0  0
  7  8  1  0  0  0  0
  4  9  1  0  0  0  0
  9 10  1  0  0  0  0
 10 11  1  0  0  0  0
 11 12  1  0  0  0  0
 12 13  2  0  0  0  0
 12 14  1  0  0  0  0
 14 15  1  0  0  0  0
 15 16  1  0  0  0  0
 12 17  2  0  0  0  0
 17 18  1  0  0  0  0
 18 19  1  0  0  0  0
  1 20  1  0  0  0  0
  1 21  1  0  0  0  0
  1 22  1  0  0  0  0
  2 23  1  0  0  0  0
  2 24  1  0  0  0  0
  7 25  1  0  0  0  0
  7 26  1  0  0  0  0
  8 27  1  0  0  0  0
  8 28  1  0  0  0  0
  8 29  1  0  0  0  0
 10 30  1  0  0  0  0
 10 31  1  0  0  0  0
 15 32  1  0  0  0  0
 15 33  1  0  0  0  0
 16 34  1  0  0  0  0
 16 35  1  0  0  0  0
 16 36  1  0  0  0  0
 18 37  1  0  0  0  0
 18 38  1  0  0  0  0
 19 39  1  0  0  0  0
 19 40  1  0  0  0  0
 19 41  1  0  0  0  0
M  END
