 xtb: 6.7.1 (edcfbbe)
          04092505213D

 41 40  0     0  0            999 V2000
    3.8005    1.7017   -0.7931 C   0  0  0  0  0  0  0  0  0  0  0  0
    2.3878    1.7533   -0.2493 C   0  0  0  0  0  0  0  0  0  0  0  0
    1.7375    0.4804   -0.3762 O   0  0  0  0  0  0  0  0  0  0  0  0
    2.0935   -0.7654    0.5588 P   0  0  0  0  0  0  0  0  0  0  0  0
    2.8706   -0.2878    2.2862 S   0  0  0  0  0  0  0  0  0  0  0  0
    3.0456   -1.7361   -0.2511 O   0  0  0  0  0  0  0  0  0  0  0  0
    2.6569   -2.5734   -1.3658 C   0  0  0  0  0  0  0  0  0  0  0  0
    2.2807   -1.7715   -2.5938 C   0  0  0  0  0  0  0  0  0  0  0  0
    0.2438   -1.7788    0.5875 S   0  0  0  0  0  0  0  0  0  0  0  0
   -0.4866   -0.8231    1.9385 C   0  0  0  0  0  0  0  0  0  0  0  0
   -0.7726    0.9250    1.5348 S   0  0  0  0  0  0  0  0  0  0  0  0
   -1.9333    0.6782   -0.2332 P   0  0  0  0  0  0  0  0  0  0  0  0
   -1.0634    0.4218   -1.9731 S   0  0  0  0  0  0  0  0  0  0  0  0
   -2.8472    1.9791   -0.1910 O   0  0  0  0  0  0  0  0  0  0  0  0
   -2.3758    3.2634   -0.6408 C   0  0  0  0  0  0  0  0  0  0  0  0
   -3.5849    4.1425   -0.8894 C   0  0  0  0  0  0  0  0  0  0  0  0
   -2.9537   -0.4317    0.2257 O   0  0  0  0  0  0  0  0  0  0  0  0
   -3.4820   -1.4585   -0.6467 C   0  0  0  0  0  0  0  0  0  0  0  0
   -3.2468   -2.8188   -0.0222 C   0  0  0  0  0  0  0  0  0  0  0  0
    3.7902    1.4104   -1.8401 H   0  0  0  0  0  0  0  0  0  0  0  0
    4.2626    2.6787   -0.6940 H   0  0  0  0  0  0  0  0  0  0  0  0
    4.3814    0.9729   -0.2275 H   0  0  0  0  0  0  0  0  0  0  0  0
    1.7550    2.4339   -0.8220 H   0  0  0  0  0  0  0  0  0  0  0  0
    2.3860    2.0443    0.8067 H   0  0  0  0  0  0  0  0  0  0  0  0
    3.5446   -3.1838   -1.5401 H   0  0  0  0  0  0  0  0  0  0  0  0
    1.8271   -3.2097   -1.0458 H   0  0  0  0  0  0  0  0  0  0  0  0
    1.3944   -1.1676   -2.4057 H   0  0  0  0  0  0  0  0  0  0  0  0
    3.0978   -1.1148   -2.8808 H   0  0  0  0  0  0  0  0  0  0  0  0
    2.0690   -2.4544   -3.4105 H   0  0  0  0  0  0  0  0  0  0  0  0
    0.1943   -0.8222    2.7907 H   0  0  0  0  0  0  0  0  0  0  0  0
   -1.4333   -1.2974    2.1853 H   0  0  0  0  0  0  0  0  0  0  0  0
   -1.7302    3.6821    0.1367 H   0  0  0  0  0  0  0  0  0  0  0  0
   -1.7906    3.1191   -1.5558 H   0  0  0  0  0  0  0  0  0  0  0  0
   -4.2106    3.7054   -1.6623 H   0  0  0  0  0  0  0  0  0  0  0  0
   -4.1664    4.2369    0.0230 H   0  0  0  0  0  0  0  0  0  0  0  0
   -3.2520    5.1245   -1.2087 H   0  0  0  0  0  0  0  0  0  0  0  0
   -4.5472   -1.2459   -0.7538 H   0  0  0  0  0  0  0  0  0  0  0  0
   -2.9930   -1.3800   -1.6235 H   0  0  0  0  0  0  0  0  0  0  0  0
   -2.1797   -3.0095    0.0769 H   0  0  0  0  0  0  0  0  0  0  0  0
   -3.7097   -2.8661    0.9594 H   0  0  0  0  0  0  0  0  0  0  0  0
   -3.6851   -3.5791   -0.6603 H   0  0  0  0  0  0  0  0  0  0  0  0
  1  2  1  0  0  0  0
  2  3  1  0  0  0  0
  3  4  1  0  0  0  0
  4  5  2  0  0  0  0
  4  6  2  0  0  0  0
  6  7  1  0  0  0  0
  7  8  1  0  0  0  0
  4  9  1  0  0  0  0
  9 10  1  0  0  0  0
 10 11  1  0  0  0  0
 11 12  1  0  0  0  0
 12 13  2  0  0  0  0
 12 14  2  0  0  0  0
 14 15  1  0  0  0  0
 15 16  1  0  0  0  0
 12 17  2  0  0  0  0
 17 18  1  0  0  0  0
 18 19  1  0  0  0  0
  1 20  1  0  0  0  0
  1 21  1  0  0  0  0
  1 22  1  0  0  0  0
  2 23  1  0  0  0  0
  2 24  1  0  0  0  0
  7 25  1  0  0  0  0
  7 26  1  0  0  0  0
  8 27  1  0  0  0  0
  8 28  1  0  0  0  0
  8 29  1  0  0  0  0
 10 30  1  0  0  0  0
 10 31  1  0  0  0  0
 15 32  1  0  0  0  0
 15 33  1  0  0  0  0
 16 34  1  0  0  0  0
 16 35  1  0  0  0  0
 16 36  1  0  0  0  0
 18 37  1  0  0  0  0
 18 38  1  0  0  0  0
 19 39  1  0  0  0  0
 19 40  1  0  0  0  0
 19 41  1  0  0  0  0
M  END
