 xtb: 6.7.1 (edcfbbe)
          04092505213D

 41 40  0     0  0            999 V2000
    2.7546    1.1263   -2.5300 C   0  0  0  0  0  0  0  0  0  0  0  0
    1.6392    1.4360   -1.5521 C   0  0  0  0  0  0  0  0  0  0  0  0
    1.5135    0.3676   -0.6003 O   0  0  0  0  0  0  0  0  0  0  0  0
    2.0421    0.4512    0.9019 P   0  0  0  0  0  0  0  0  0  0  0  0
    3.3108    1.9078    1.2180 S   0  0  0  0  0  0  0  0  0  0  0  0
    2.5485   -1.0298    1.1835 O   0  0  0  0  0  0  0  0  0  0  0  0
    3.6187   -1.6080    0.4013 C   0  0  0  0  0  0  0  0  0  0  0  0
    3.0578   -2.5777   -0.6199 C   0  0  0  0  0  0  0  0  0  0  0  0
    0.3649    0.4159    2.1549 S   0  0  0  0  0  0  0  0  0  0  0  0
   -0.4001   -1.1753    1.6424 C   0  0  0  0  0  0  0  0  0  0  0  0
   -2.1543   -0.9977    1.2773 S   0  0  0  0  0  0  0  0  0  0  0  0
   -1.9053   -0.3086   -0.7263 P   0  0  0  0  0  0  0  0  0  0  0  0
   -0.7631   -1.4016   -1.8737 S   0  0  0  0  0  0  0  0  0  0  0  0
   -1.3793    1.1758   -0.5900 O   0  0  0  0  0  0  0  0  0  0  0  0
   -2.0994    2.2062    0.1340 C   0  0  0  0  0  0  0  0  0  0  0  0
   -1.1742    3.3950    0.2869 C   0  0  0  0  0  0  0  0  0  0  0  0
   -3.3922   -0.0787   -1.2382 O   0  0  0  0  0  0  0  0  0  0  0  0
   -4.1760   -1.1230   -1.8440 C   0  0  0  0  0  0  0  0  0  0  0  0
   -4.4824   -2.2475   -0.8768 C   0  0  0  0  0  0  0  0  0  0  0  0
    3.7083    1.0914   -2.0067 H   0  0  0  0  0  0  0  0  0  0  0  0
    2.5739    0.1690   -3.0119 H   0  0  0  0  0  0  0  0  0  0  0  0
    2.7935    1.9063   -3.2834 H   0  0  0  0  0  0  0  0  0  0  0  0
    0.6709    1.4926   -2.0522 H   0  0  0  0  0  0  0  0  0  0  0  0
    1.8395    2.3699   -1.0185 H   0  0  0  0  0  0  0  0  0  0  0  0
    4.1857   -0.8036   -0.0772 H   0  0  0  0  0  0  0  0  0  0  0  0
    4.2567   -2.1157    1.1271 H   0  0  0  0  0  0  0  0  0  0  0  0
    3.8721   -2.9891   -1.2075 H   0  0  0  0  0  0  0  0  0  0  0  0
    2.5336   -3.3868   -0.1188 H   0  0  0  0  0  0  0  0  0  0  0  0
    2.3584   -2.0730   -1.2836 H   0  0  0  0  0  0  0  0  0  0  0  0
   -0.3127   -1.8682    2.4741 H   0  0  0  0  0  0  0  0  0  0  0  0
    0.1143   -1.5448    0.7551 H   0  0  0  0  0  0  0  0  0  0  0  0
   -2.9909    2.4599   -0.4419 H   0  0  0  0  0  0  0  0  0  0  0  0
   -2.3956    1.8062    1.1081 H   0  0  0  0  0  0  0  0  0  0  0  0
   -0.8672    3.7633   -0.6879 H   0  0  0  0  0  0  0  0  0  0  0  0
   -1.6943    4.1827    0.8219 H   0  0  0  0  0  0  0  0  0  0  0  0
   -0.2867    3.1134    0.8513 H   0  0  0  0  0  0  0  0  0  0  0  0
   -5.0829   -0.6100   -2.1672 H   0  0  0  0  0  0  0  0  0  0  0  0
   -3.6318   -1.5011   -2.7148 H   0  0  0  0  0  0  0  0  0  0  0  0
   -3.5694   -2.7866   -0.6295 H   0  0  0  0  0  0  0  0  0  0  0  0
   -4.9152   -1.8527    0.0390 H   0  0  0  0  0  0  0  0  0  0  0  0
   -5.1823   -2.9359   -1.3394 H   0  0  0  0  0  0  0  0  0  0  0  0
  1  2  1  0  0  0  0
  2  3  1  0  0  0  0
  3  4  2  0  0  0  0
  4  5  2  0  0  0  0
  4  6  1  0  0  0  0
  6  7  1  0  0  0  0
  7  8  1  0  0  0  0
  4  9  1  0  0  0  0
  9 10  1  0  0  0  0
 10 11  1  0  0  0  0
 11 12  1  0  0  0  0
 12 13  2  0  0  0  0
 12 14  2  0  0  0  0
 14 15  1  0  0  0  0
 15 16  1  0  0  0  0
 12 17  2  0  0  0  0
 17 18  1  0  0  0  0
 18 19  1  0  0  0  0
  1 20  1  0  0  0  0
  1 21  1  0  0  0  0
  1 22  1  0  0  0  0
  2 23  1  0  0  0  0
  2 24  1  0  0  0  0
  7 25  1  0  0  0  0
  7 26  1  0  0  0  0
  8 27  1  0  0  0  0
  8 28  1  0  0  0  0
  8 29  1  0  0  0  0
 10 30  1  0  0  0  0
 10 31  1  0  0  0  0
 15 32  1  0  0  0  0
 15 33  1  0  0  0  0
 16 34  1  0  0  0  0
 16 35  1  0  0  0  0
 16 36  1  0  0  0  0
 18 37  1  0  0  0  0
 18 38  1  0  0  0  0
 19 39  1  0  0  0  0
 19 40  1  0  0  0  0
 19 41  1  0  0  0  0
M  END
