 xtb: 6.7.1 (edcfbbe)
          04092505203D

 41 40  0     0  0            999 V2000
    3.8250   -1.0623   -2.4796 C   0  0  0  0  0  0  0  0  0  0  0  0
    4.2106    0.2527   -1.8318 C   0  0  0  0  0  0  0  0  0  0  0  0
    3.7251    0.3661   -0.4857 O   0  0  0  0  0  0  0  0  0  0  0  0
    2.1774    0.4753   -0.1143 P   0  0  0  0  0  0  0  0  0  0  0  0
    1.1670    1.5738   -1.3800 S   0  0  0  0  0  0  0  0  0  0  0  0
    2.2610    1.1131    1.3192 O   0  0  0  0  0  0  0  0  0  0  0  0
    2.5349    0.4279    2.5625 C   0  0  0  0  0  0  0  0  0  0  0  0
    3.8113   -0.3826    2.5139 C   0  0  0  0  0  0  0  0  0  0  0  0
    1.5231   -1.5400    0.1228 S   0  0  0  0  0  0  0  0  0  0  0  0
    0.2207   -1.6194   -1.1444 C   0  0  0  0  0  0  0  0  0  0  0  0
   -1.4162   -2.0317   -0.4812 S   0  0  0  0  0  0  0  0  0  0  0  0
   -1.9928   -0.1820    0.3328 P   0  0  0  0  0  0  0  0  0  0  0  0
   -0.9055    0.6878    1.7056 S   0  0  0  0  0  0  0  0  0  0  0  0
   -3.4298   -0.4999    0.9193 O   0  0  0  0  0  0  0  0  0  0  0  0
   -4.4744   -1.1131    0.1207 C   0  0  0  0  0  0  0  0  0  0  0  0
   -5.8104   -0.6922    0.6977 C   0  0  0  0  0  0  0  0  0  0  0  0
   -2.1878    0.6384   -1.0269 O   0  0  0  0  0  0  0  0  0  0  0  0
   -2.2662    2.0738   -1.0457 C   0  0  0  0  0  0  0  0  0  0  0  0
   -3.5957    2.5644   -0.5117 C   0  0  0  0  0  0  0  0  0  0  0  0
    2.7513   -1.0870   -2.6585 H   0  0  0  0  0  0  0  0  0  0  0  0
    4.3402   -1.1558   -3.4301 H   0  0  0  0  0  0  0  0  0  0  0  0
    4.0983   -1.8955   -1.8373 H   0  0  0  0  0  0  0  0  0  0  0  0
    3.8216    1.0957   -2.4122 H   0  0  0  0  0  0  0  0  0  0  0  0
    5.2922    0.3458   -1.7245 H   0  0  0  0  0  0  0  0  0  0  0  0
    2.5960    1.2439    3.2840 H   0  0  0  0  0  0  0  0  0  0  0  0
    1.6697   -0.1975    2.8002 H   0  0  0  0  0  0  0  0  0  0  0  0
    4.0014   -0.8009    3.4974 H   0  0  0  0  0  0  0  0  0  0  0  0
    3.7136   -1.1961    1.7965 H   0  0  0  0  0  0  0  0  0  0  0  0
    4.6456    0.2492    2.2204 H   0  0  0  0  0  0  0  0  0  0  0  0
    0.4651   -2.4318   -1.8238 H   0  0  0  0  0  0  0  0  0  0  0  0
    0.1724   -0.6570   -1.6623 H   0  0  0  0  0  0  0  0  0  0  0  0
   -4.3625   -0.7898   -0.9174 H   0  0  0  0  0  0  0  0  0  0  0  0
   -4.3374   -2.1952    0.1778 H   0  0  0  0  0  0  0  0  0  0  0  0
   -6.6057   -1.1786    0.1422 H   0  0  0  0  0  0  0  0  0  0  0  0
   -5.8697   -0.9842    1.7422 H   0  0  0  0  0  0  0  0  0  0  0  0
   -5.9313    0.3855    0.6302 H   0  0  0  0  0  0  0  0  0  0  0  0
   -1.4361    2.4785   -0.4575 H   0  0  0  0  0  0  0  0  0  0  0  0
   -2.1183    2.3342   -2.0948 H   0  0  0  0  0  0  0  0  0  0  0  0
   -3.6326    3.6467   -0.5857 H   0  0  0  0  0  0  0  0  0  0  0  0
   -4.4142    2.1362   -1.0848 H   0  0  0  0  0  0  0  0  0  0  0  0
   -3.6994    2.2778    0.5348 H   0  0  0  0  0  0  0  0  0  0  0  0
  1  2  1  0  0  0  0
  2  3  1  0  0  0  0
  3  4  2  0  0  0  0
  4  5  2  0  0  0  0
  4  6  2  0  0  0  0
  6  7  1  0  0  0  0
  7  8  1  0  0  0  0
  4  9  1  0  0  0  0
  9 10  1  0  0  0  0
 10 11  1  0  0  0  0
 11 12  1  0  0  0  0
 12 13  2  0  0  0  0
 12 14  2  0  0  0  0
 14 15  1  0  0  0  0
 15 16  1  0  0  0  0
 12 17  1  0  0  0  0
 17 18  1  0  0  0  0
 18 19  1  0  0  0  0
  1 20  1  0  0  0  0
  1 21  1  0  0  0  0
  1 22  1  0  0  0  0
  2 23  1  0  0  0  0
  2 24  1  0  0  0  0
  7 25  1  0  0  0  0
  7 26  1  0  0  0  0
  8 27  1  0  0  0  0
  8 28  1  0  0  0  0
  8 29  1  0  0  0  0
 10 30  1  0  0  0  0
 10 31  1  0  0  0  0
 15 32  1  0  0  0  0
 15 33  1  0  0  0  0
 16 34  1  0  0  0  0
 16 35  1  0  0  0  0
 16 36  1  0  0  0  0
 18 37  1  0  0  0  0
 18 38  1  0  0  0  0
 19 39  1  0  0  0  0
 19 40  1  0  0  0  0
 19 41  1  0  0  0  0
M  END
