41
 xtb: 6.7.1 (edcfbbe)
C            6.08262642770528        0.76169526932841       -0.68638430871539
C            4.73339341608979        0.32069709073676       -1.19024392958974
O            3.80092063548331        0.38666201021548       -0.05450981257663
P            2.20883324345585        0.48865953632199       -0.28156869571486
S            1.56985829691860        1.83804060718361       -1.52779684174981
O            1.69680984144354        0.76964515413379        1.20799601727390
C            1.55284633924616       -0.24425623868702        2.26660991913270
C            2.88005598855440       -0.72443215368408        2.79730495311053
S            1.80169667058021       -1.53113064070442       -0.81169702425362
C            0.10726689729782       -1.45297297795817       -1.51244849116210
S           -1.23634266103690       -1.92980451984019       -0.33931672510896
P           -2.29722939545488       -0.10924971217796       -0.14995453409189
S           -2.81204740544479        0.78562215357500       -1.80130394995182
O           -1.34679970202790        0.71335573154987        0.85020575702098
C           -1.48588472775282        2.16957730228488        1.01795768345000
C           -2.72168740037635        2.52662012246501        1.80658628104054
O           -3.48286116349810       -0.58446119195327        0.83120118097823
C           -4.84517609213727       -0.87516588963611        0.36163766928146
C           -4.94283838647625       -2.24491280021203       -0.26163705763737
H            6.42571942444881        0.11937240779749        0.12961583162264
H            6.80531218339188        0.69503270697958       -1.50536156868552
H            6.04913694775129        1.79753512778164       -0.33734889521382
H            4.74973155755076       -0.71243124202192       -1.55018490745692
H            4.36292978042070        0.97609151457171       -1.98464096629573
H            0.97997962487821        0.28073258919400        3.03353405291174
H            0.94612414953260       -1.06463034005654        1.87194157400593
H            3.50400400642262        0.11562481933518        3.11531494291030
H            2.68956644433522       -1.36078443243283        3.66796342352581
H            3.42750005404955       -1.31670662546470        2.05899962047594
H            0.09107571126618       -2.18119547592187       -2.32675411889886
H           -0.08286067276618       -0.45615960939170       -1.92705058031771
H           -0.57259139597463        2.45185958161744        1.54541859595133
H           -1.48118696776809        2.62964069854437        0.02546857533697
H           -2.73358920022617        2.01123371212691        2.77124804564370
H           -2.71684121357246        3.60586070671957        1.99158310726421
H           -3.63673846117216        2.28069215100239        1.25904658989840
H           -5.44763507641478       -0.80150384636196        1.26918432463506
H           -5.14518551591738       -0.08484648215178       -0.33251146909808
H           -4.58712081051087       -3.01602905943829        0.42788773198345
H           -5.99338172415377       -2.44837511580293       -0.49366463667947
H           -4.37159640750482       -2.30509068827316       -1.19255998246877
