 xtb: 6.7.1 (edcfbbe)
          04092505213D

 41 40  0     0  0            999 V2000
    1.5083   -3.0887    0.7192 C   0  0  0  0  0  0  0  0  0  0  0  0
    1.6607   -1.8884    1.6309 C   0  0  0  0  0  0  0  0  0  0  0  0
    2.7457   -1.0279    1.2429 O   0  0  0  0  0  0  0  0  0  0  0  0
    2.7985   -0.1572   -0.0912 P   0  0  0  0  0  0  0  0  0  0  0  0
    3.1175   -1.0807   -1.7849 S   0  0  0  0  0  0  0  0  0  0  0  0
    3.9804    0.8237    0.2359 O   0  0  0  0  0  0  0  0  0  0  0  0
    4.0148    1.6407    1.4365 C   0  0  0  0  0  0  0  0  0  0  0  0
    5.0042    2.7623    1.2016 C   0  0  0  0  0  0  0  0  0  0  0  0
    1.0310    1.0639   -0.0093 S   0  0  0  0  0  0  0  0  0  0  0  0
    0.1259    0.3208   -1.3877 C   0  0  0  0  0  0  0  0  0  0  0  0
   -1.0760   -0.9156   -0.8523 S   0  0  0  0  0  0  0  0  0  0  0  0
   -2.5693    0.4892   -0.2538 P   0  0  0  0  0  0  0  0  0  0  0  0
   -2.8482    1.9629   -1.5096 S   0  0  0  0  0  0  0  0  0  0  0  0
   -2.1280    1.0044    1.1656 O   0  0  0  0  0  0  0  0  0  0  0  0
   -1.9342    0.1320    2.3085 C   0  0  0  0  0  0  0  0  0  0  0  0
   -3.1539    0.1525    3.2060 C   0  0  0  0  0  0  0  0  0  0  0  0
   -3.8423   -0.4008    0.0714 O   0  0  0  0  0  0  0  0  0  0  0  0
   -4.6824   -0.9577   -0.9589 C   0  0  0  0  0  0  0  0  0  0  0  0
   -4.2822   -2.3847   -1.2785 C   0  0  0  0  0  0  0  0  0  0  0  0
    2.4556   -3.6135    0.6266 H   0  0  0  0  0  0  0  0  0  0  0  0
    0.7631   -3.7603    1.1325 H   0  0  0  0  0  0  0  0  0  0  0  0
    1.1866   -2.7775   -0.2733 H   0  0  0  0  0  0  0  0  0  0  0  0
    1.9249   -2.1904    2.6458 H   0  0  0  0  0  0  0  0  0  0  0  0
    0.7400   -1.2974    1.6491 H   0  0  0  0  0  0  0  0  0  0  0  0
    3.0086    2.0272    1.6233 H   0  0  0  0  0  0  0  0  0  0  0  0
    4.3195    1.0000    2.2658 H   0  0  0  0  0  0  0  0  0  0  0  0
    5.9831    2.3514    0.9717 H   0  0  0  0  0  0  0  0  0  0  0  0
    4.6806    3.3794    0.3681 H   0  0  0  0  0  0  0  0  0  0  0  0
    5.0704    3.3731    2.0961 H   0  0  0  0  0  0  0  0  0  0  0  0
    0.8378   -0.1755   -2.0519 H   0  0  0  0  0  0  0  0  0  0  0  0
   -0.4060    1.1224   -1.9024 H   0  0  0  0  0  0  0  0  0  0  0  0
   -1.7264   -0.8803    1.9506 H   0  0  0  0  0  0  0  0  0  0  0  0
   -1.0578    0.5403    2.8160 H   0  0  0  0  0  0  0  0  0  0  0  0
   -4.0154   -0.2481    2.6786 H   0  0  0  0  0  0  0  0  0  0  0  0
   -2.9576   -0.4522    4.0858 H   0  0  0  0  0  0  0  0  0  0  0  0
   -3.3735    1.1716    3.5119 H   0  0  0  0  0  0  0  0  0  0  0  0
   -5.6909   -0.9141   -0.5434 H   0  0  0  0  0  0  0  0  0  0  0  0
   -4.6289   -0.3165   -1.8445 H   0  0  0  0  0  0  0  0  0  0  0  0
   -3.2774   -2.4190   -1.6934 H   0  0  0  0  0  0  0  0  0  0  0  0
   -4.3094   -2.9899   -0.3770 H   0  0  0  0  0  0  0  0  0  0  0  0
   -4.9787   -2.7924   -2.0041 H   0  0  0  0  0  0  0  0  0  0  0  0
  1  2  1  0  0  0  0
  2  3  1  0  0  0  0
  3  4  2  0  0  0  0
  4  5  2  0  0  0  0
  4  6  2  0  0  0  0
  6  7  1  0  0  0  0
  7  8  1  0  0  0  0
  4  9  1  0  0  0  0
  9 10  1  0  0  0  0
 10 11  1  0  0  0  0
 11 12  1  0  0  0  0
 12 13  2  0  0  0  0
 12 14  2  0  0  0  0
 14 15  1  0  0  0  0
 15 16  1  0  0  0  0
 12 17  2  0  0  0  0
 17 18  1  0  0  0  0
 18 19  1  0  0  0  0
  1 20  1  0  0  0  0
  1 21  1  0  0  0  0
  1 22  1  0  0  0  0
  2 23  1  0  0  0  0
  2 24  1  0  0  0  0
  7 25  1  0  0  0  0
  7 26  1  0  0  0  0
  8 27  1  0  0  0  0
  8 28  1  0  0  0  0
  8 29  1  0  0  0  0
 10 30  1  0  0  0  0
 10 31  1  0  0  0  0
 15 32  1  0  0  0  0
 15 33  1  0  0  0  0
 16 34  1  0  0  0  0
 16 35  1  0  0  0  0
 16 36  1  0  0  0  0
 18 37  1  0  0  0  0
 18 38  1  0  0  0  0
 19 39  1  0  0  0  0
 19 40  1  0  0  0  0
 19 41  1  0  0  0  0
M  END
