 xtb: 6.7.1 (edcfbbe)
          04092505203D

 41 40  0     0  0            999 V2000
    4.2917   -1.0021   -2.3336 C   0  0  0  0  0  0  0  0  0  0  0  0
    4.4777   -1.4457   -0.8969 C   0  0  0  0  0  0  0  0  0  0  0  0
    3.2239   -1.5930   -0.2078 O   0  0  0  0  0  0  0  0  0  0  0  0
    2.2996   -0.3520    0.1504 P   0  0  0  0  0  0  0  0  0  0  0  0
    3.2506    1.2725    0.7084 S   0  0  0  0  0  0  0  0  0  0  0  0
    1.3114   -0.9815    1.2179 O   0  0  0  0  0  0  0  0  0  0  0  0
    1.5798   -0.9014    2.6354 C   0  0  0  0  0  0  0  0  0  0  0  0
    2.7840   -1.7307    3.0286 C   0  0  0  0  0  0  0  0  0  0  0  0
    0.9911   -0.1786   -1.5021 S   0  0  0  0  0  0  0  0  0  0  0  0
    0.3785    1.4774   -1.0901 C   0  0  0  0  0  0  0  0  0  0  0  0
   -0.6986    1.4887    0.3612 S   0  0  0  0  0  0  0  0  0  0  0  0
   -2.2789    0.3452   -0.5180 P   0  0  0  0  0  0  0  0  0  0  0  0
   -2.5735    0.6611   -2.4228 S   0  0  0  0  0  0  0  0  0  0  0  0
   -3.5018    0.6779    0.4386 O   0  0  0  0  0  0  0  0  0  0  0  0
   -4.1414    1.9716    0.4018 C   0  0  0  0  0  0  0  0  0  0  0  0
   -5.4708    1.8526    1.1187 C   0  0  0  0  0  0  0  0  0  0  0  0
   -1.9850   -1.1657   -0.1937 O   0  0  0  0  0  0  0  0  0  0  0  0
   -1.8717   -1.6804    1.1562 C   0  0  0  0  0  0  0  0  0  0  0  0
   -3.1666   -2.3396    1.5826 C   0  0  0  0  0  0  0  0  0  0  0  0
    5.2499   -1.0191   -2.8429 H   0  0  0  0  0  0  0  0  0  0  0  0
    3.5971   -1.6625   -2.8471 H   0  0  0  0  0  0  0  0  0  0  0  0
    3.8944    0.0119   -2.3627 H   0  0  0  0  0  0  0  0  0  0  0  0
    5.0899   -0.7220   -0.3491 H   0  0  0  0  0  0  0  0  0  0  0  0
    4.9283   -2.4371   -0.8361 H   0  0  0  0  0  0  0  0  0  0  0  0
    1.7294    0.1506    2.8984 H   0  0  0  0  0  0  0  0  0  0  0  0
    0.6649   -1.2728    3.0984 H   0  0  0  0  0  0  0  0  0  0  0  0
    3.6859   -1.3063    2.5893 H   0  0  0  0  0  0  0  0  0  0  0  0
    2.8845   -1.7288    4.1095 H   0  0  0  0  0  0  0  0  0  0  0  0
    2.6690   -2.7523    2.6759 H   0  0  0  0  0  0  0  0  0  0  0  0
   -0.1823    1.8251   -1.9576 H   0  0  0  0  0  0  0  0  0  0  0  0
    1.2186    2.1343   -0.8639 H   0  0  0  0  0  0  0  0  0  0  0  0
   -3.4822    2.6913    0.8946 H   0  0  0  0  0  0  0  0  0  0  0  0
   -4.2731    2.2637   -0.6450 H   0  0  0  0  0  0  0  0  0  0  0  0
   -5.9657    2.8180    1.1105 H   0  0  0  0  0  0  0  0  0  0  0  0
   -6.1013    1.1234    0.6177 H   0  0  0  0  0  0  0  0  0  0  0  0
   -5.3135    1.5386    2.1465 H   0  0  0  0  0  0  0  0  0  0  0  0
   -1.0494   -2.3972    1.1070 H   0  0  0  0  0  0  0  0  0  0  0  0
   -1.6048   -0.8573    1.8253 H   0  0  0  0  0  0  0  0  0  0  0  0
   -3.9677   -1.6059    1.6134 H   0  0  0  0  0  0  0  0  0  0  0  0
   -3.4342   -3.1216    0.8775 H   0  0  0  0  0  0  0  0  0  0  0  0
   -3.0375   -2.7737    2.5692 H   0  0  0  0  0  0  0  0  0  0  0  0
  1  2  1  0  0  0  0
  2  3  1  0  0  0  0
  3  4  2  0  0  0  0
  4  5  2  0  0  0  0
  4  6  2  0  0  0  0
  6  7  1  0  0  0  0
  7  8  1  0  0  0  0
  4  9  1  0  0  0  0
  9 10  1  0  0  0  0
 10 11  1  0  0  0  0
 11 12  1  0  0  0  0
 12 13  2  0  0  0  0
 12 14  2  0  0  0  0
 14 15  1  0  0  0  0
 15 16  1  0  0  0  0
 12 17  2  0  0  0  0
 17 18  1  0  0  0  0
 18 19  1  0  0  0  0
  1 20  1  0  0  0  0
  1 21  1  0  0  0  0
  1 22  1  0  0  0  0
  2 23  1  0  0  0  0
  2 24  1  0  0  0  0
  7 25  1  0  0  0  0
  7 26  1  0  0  0  0
  8 27  1  0  0  0  0
  8 28  1  0  0  0  0
  8 29  1  0  0  0  0
 10 30  1  0  0  0  0
 10 31  1  0  0  0  0
 15 32  1  0  0  0  0
 15 33  1  0  0  0  0
 16 34  1  0  0  0  0
 16 35  1  0  0  0  0
 16 36  1  0  0  0  0
 18 37  1  0  0  0  0
 18 38  1  0  0  0  0
 19 39  1  0  0  0  0
 19 40  1  0  0  0  0
 19 41  1  0  0  0  0
M  END
