 xtb: 6.7.1 (edcfbbe)
          04092505203D

 41 40  0     0  0            999 V2000
    4.4145   -1.5814   -0.8383 C   0  0  0  0  0  0  0  0  0  0  0  0
    4.5600   -0.0893   -0.6204 C   0  0  0  0  0  0  0  0  0  0  0  0
    3.4704    0.4705    0.1342 O   0  0  0  0  0  0  0  0  0  0  0  0
    1.9777    0.5281   -0.4211 P   0  0  0  0  0  0  0  0  0  0  0  0
    1.8299    0.9209   -2.3293 S   0  0  0  0  0  0  0  0  0  0  0  0
    1.3419    1.6307    0.5120 O   0  0  0  0  0  0  0  0  0  0  0  0
    1.4562    1.5978    1.9554 C   0  0  0  0  0  0  0  0  0  0  0  0
    2.5388    2.5447    2.4293 C   0  0  0  0  0  0  0  0  0  0  0  0
    1.1798   -1.3310    0.2365 S   0  0  0  0  0  0  0  0  0  0  0  0
   -0.0125   -1.6807   -1.0947 C   0  0  0  0  0  0  0  0  0  0  0  0
   -1.6973   -1.9273   -0.4924 S   0  0  0  0  0  0  0  0  0  0  0  0
   -2.0752    0.0595    0.1604 P   0  0  0  0  0  0  0  0  0  0  0  0
   -1.4683    1.4873   -1.0358 S   0  0  0  0  0  0  0  0  0  0  0  0
   -1.4519    0.1891    1.6062 O   0  0  0  0  0  0  0  0  0  0  0  0
   -1.9057   -0.5866    2.7529 C   0  0  0  0  0  0  0  0  0  0  0  0
   -0.9367   -1.7058    3.0757 C   0  0  0  0  0  0  0  0  0  0  0  0
   -3.6329    0.0487    0.4799 O   0  0  0  0  0  0  0  0  0  0  0  0
   -4.6332    0.3432   -0.5114 C   0  0  0  0  0  0  0  0  0  0  0  0
   -4.6974   -0.7106   -1.5977 C   0  0  0  0  0  0  0  0  0  0  0  0
    4.2307   -2.0877    0.1058 H   0  0  0  0  0  0  0  0  0  0  0  0
    3.5845   -1.7784   -1.5148 H   0  0  0  0  0  0  0  0  0  0  0  0
    5.3269   -1.9652   -1.2831 H   0  0  0  0  0  0  0  0  0  0  0  0
    4.6158    0.4344   -1.5797 H   0  0  0  0  0  0  0  0  0  0  0  0
    5.4383    0.1451   -0.0173 H   0  0  0  0  0  0  0  0  0  0  0  0
    0.4702    1.9015    2.3136 H   0  0  0  0  0  0  0  0  0  0  0  0
    1.6618    0.5702    2.2691 H   0  0  0  0  0  0  0  0  0  0  0  0
    2.3404    3.5477    2.0614 H   0  0  0  0  0  0  0  0  0  0  0  0
    2.5495    2.5547    3.5147 H   0  0  0  0  0  0  0  0  0  0  0  0
    3.5088    2.2213    2.0613 H   0  0  0  0  0  0  0  0  0  0  0  0
    0.2745   -2.6153   -1.5697 H   0  0  0  0  0  0  0  0  0  0  0  0
    0.0138   -0.8516   -1.8074 H   0  0  0  0  0  0  0  0  0  0  0  0
   -1.9553    0.1409    3.5647 H   0  0  0  0  0  0  0  0  0  0  0  0
   -2.9045   -0.9720    2.5444 H   0  0  0  0  0  0  0  0  0  0  0  0
   -0.8995   -2.4330    2.2688 H   0  0  0  0  0  0  0  0  0  0  0  0
    0.0630   -1.3101    3.2306 H   0  0  0  0  0  0  0  0  0  0  0  0
   -1.2689   -2.2004    3.9830 H   0  0  0  0  0  0  0  0  0  0  0  0
   -5.5593    0.3870    0.0637 H   0  0  0  0  0  0  0  0  0  0  0  0
   -4.4134    1.3256   -0.9405 H   0  0  0  0  0  0  0  0  0  0  0  0
   -5.5559   -0.5164   -2.2326 H   0  0  0  0  0  0  0  0  0  0  0  0
   -3.7954   -0.6735   -2.2067 H   0  0  0  0  0  0  0  0  0  0  0  0
   -4.7867   -1.7019   -1.1605 H   0  0  0  0  0  0  0  0  0  0  0  0
  1  2  1  0  0  0  0
  2  3  1  0  0  0  0
  3  4  2  0  0  0  0
  4  5  2  0  0  0  0
  4  6  2  0  0  0  0
  6  7  1  0  0  0  0
  7  8  1  0  0  0  0
  4  9  1  0  0  0  0
  9 10  1  0  0  0  0
 10 11  1  0  0  0  0
 11 12  1  0  0  0  0
 12 13  2  0  0  0  0
 12 14  2  0  0  0  0
 14 15  1  0  0  0  0
 15 16  1  0  0  0  0
 12 17  2  0  0  0  0
 17 18  1  0  0  0  0
 18 19  1  0  0  0  0
  1 20  1  0  0  0  0
  1 21  1  0  0  0  0
  1 22  1  0  0  0  0
  2 23  1  0  0  0  0
  2 24  1  0  0  0  0
  7 25  1  0  0  0  0
  7 26  1  0  0  0  0
  8 27  1  0  0  0  0
  8 28  1  0  0  0  0
  8 29  1  0  0  0  0
 10 30  1  0  0  0  0
 10 31  1  0  0  0  0
 15 32  1  0  0  0  0
 15 33  1  0  0  0  0
 16 34  1  0  0  0  0
 16 35  1  0  0  0  0
 16 36  1  0  0  0  0
 18 37  1  0  0  0  0
 18 38  1  0  0  0  0
 19 39  1  0  0  0  0
 19 40  1  0  0  0  0
 19 41  1  0  0  0  0
M  END
