38
 xtb: 6.7.1 (edcfbbe)
C            2.07878299405189       -3.40552215509236        0.06267618114791
C            2.82779094208896       -3.00112316230975       -1.18632288843852
O            2.15234789579490       -1.87392082943432       -1.84095870580685
C            2.38938919067273       -0.65612222370104       -1.33661924447873
O            3.19607745169314       -0.41883358965988       -0.45398128835796
C            1.51251085511050        0.40109993855314       -1.96000198799803
C            0.34047152790132        0.77547750008880       -1.02519865153056
H           -0.20094626768587        1.60736137139504       -1.48213541520513
C            0.85287177470168        1.22188691071108        0.34182493495817
O            0.83437744428943        0.55753779708675        1.35776405997942
O            1.34329748285491        2.46074261162547        0.24147508285292
C            1.94835686550357        3.03696538255643        1.45114445786138
C            3.35884768746211        2.53475529536341        1.64562642598061
S           -0.80612001879105       -0.66661406273532       -0.91652402140608
P           -2.32228648799333        0.10159579954966        0.35508540625295
S           -2.55036574982469        2.02914648450681        0.32768853736299
O           -3.56837888955829       -0.82285678759853       -0.08401017021546
C           -4.26451067187273       -0.56700624574994       -1.33679671835261
O           -2.06537825905016       -0.44272210108440        1.84094242500634
C           -1.68945428778089       -1.83065379486843        2.08846430597371
H            2.06229699647910       -2.59517545695473        0.79731203644939
H            1.05048950462222       -3.69100120148828       -0.17646723676197
H            2.58023632722362       -4.26808354420089        0.51281739221642
H            2.81250701052840       -3.78852597207912       -1.94142997760976
H            3.86178177342816       -2.71630089539682       -0.97847769044221
H            1.11873624128482        0.07369555429263       -2.92410495222508
H            2.11556016231742        1.30120801421179       -2.10460456181279
H            1.92598483587507        4.11045005483537        1.25830518927295
H            1.30116435628758        2.80668846908885        2.30092499628151
H            3.80295855165938        3.06540407455760        2.49388711113785
H            3.38070589079323        1.46408483778077        1.86161821211749
H            3.96828641268310        2.73508103336695        0.75987773795067
H           -5.00387572924645       -1.36260399303142       -1.42746620482557
H           -3.56786338000842       -0.60604314278131       -2.17877932795423
H           -4.75849053166274        0.40674731482353       -1.29399562445945
H           -1.71956194082841       -1.94830009777747        3.17134865829362
H           -0.67706065175621       -2.01107658170795        1.71770378943389
H           -2.40071373043646       -2.51293340427851        1.61700635693118
