 xtb: 6.7.1 (edcfbbe)
          04092505203D

 41 40  0     0  0            999 V2000
    5.8706    0.0133   -0.2710 C   0  0  0  0  0  0  0  0  0  0  0  0
    4.5425   -0.6090   -0.6529 C   0  0  0  0  0  0  0  0  0  0  0  0
    3.5040    0.0495    0.0996 O   0  0  0  0  0  0  0  0  0  0  0  0
    2.0032    0.1413   -0.4240 P   0  0  0  0  0  0  0  0  0  0  0  0
    1.8720    0.6445   -2.3192 S   0  0  0  0  0  0  0  0  0  0  0  0
    1.3850    1.1115    0.6582 O   0  0  0  0  0  0  0  0  0  0  0  0
    1.5839    2.5415    0.5827 C   0  0  0  0  0  0  0  0  0  0  0  0
    0.7942    3.1707    1.7097 C   0  0  0  0  0  0  0  0  0  0  0  0
    1.1955   -1.7146    0.1219 S   0  0  0  0  0  0  0  0  0  0  0  0
   -0.1043   -1.8970   -1.1499 C   0  0  0  0  0  0  0  0  0  0  0  0
   -1.7662   -1.9980   -0.4547 S   0  0  0  0  0  0  0  0  0  0  0  0
   -1.9405    0.0106    0.2294 P   0  0  0  0  0  0  0  0  0  0  0  0
   -1.3913    1.4119   -1.0204 S   0  0  0  0  0  0  0  0  0  0  0  0
   -1.1385    0.0717    1.5837 O   0  0  0  0  0  0  0  0  0  0  0  0
   -1.2821   -0.8675    2.6780 C   0  0  0  0  0  0  0  0  0  0  0  0
   -2.3297   -0.4015    3.6673 C   0  0  0  0  0  0  0  0  0  0  0  0
   -3.4533    0.0988    0.7102 O   0  0  0  0  0  0  0  0  0  0  0  0
   -4.5331    0.4480   -0.1741 C   0  0  0  0  0  0  0  0  0  0  0  0
   -4.8008   -0.6248   -1.2095 C   0  0  0  0  0  0  0  0  0  0  0  0
    5.8849    1.0648   -0.5443 H   0  0  0  0  0  0  0  0  0  0  0  0
    6.0264   -0.0754    0.8003 H   0  0  0  0  0  0  0  0  0  0  0  0
    6.6678   -0.5026   -0.7957 H   0  0  0  0  0  0  0  0  0  0  0  0
    4.5129   -1.6722   -0.4024 H   0  0  0  0  0  0  0  0  0  0  0  0
    4.3331   -0.4828   -1.7206 H   0  0  0  0  0  0  0  0  0  0  0  0
    2.6538    2.7460    0.6713 H   0  0  0  0  0  0  0  0  0  0  0  0
    1.2297    2.8845   -0.3957 H   0  0  0  0  0  0  0  0  0  0  0  0
    1.1483    2.7966    2.6657 H   0  0  0  0  0  0  0  0  0  0  0  0
    0.9135    4.2485    1.6706 H   0  0  0  0  0  0  0  0  0  0  0  0
   -0.2584    2.9207    1.6000 H   0  0  0  0  0  0  0  0  0  0  0  0
    0.0641   -2.8387   -1.6657 H   0  0  0  0  0  0  0  0  0  0  0  0
   -0.0341   -1.0517   -1.8406 H   0  0  0  0  0  0  0  0  0  0  0  0
   -1.5325   -1.8513    2.2709 H   0  0  0  0  0  0  0  0  0  0  0  0
   -0.2883   -0.9006    3.1290 H   0  0  0  0  0  0  0  0  0  0  0  0
   -3.3099   -0.3831    3.1989 H   0  0  0  0  0  0  0  0  0  0  0  0
   -2.3473   -1.0870    4.5088 H   0  0  0  0  0  0  0  0  0  0  0  0
   -2.0914    0.5971    4.0233 H   0  0  0  0  0  0  0  0  0  0  0  0
   -5.3837    0.5816    0.4959 H   0  0  0  0  0  0  0  0  0  0  0  0
   -4.2882    1.3986   -0.6580 H   0  0  0  0  0  0  0  0  0  0  0  0
   -4.9114   -1.5944   -0.7305 H   0  0  0  0  0  0  0  0  0  0  0  0
   -5.7111   -0.3816   -1.7480 H   0  0  0  0  0  0  0  0  0  0  0  0
   -3.9764   -0.6751   -1.9187 H   0  0  0  0  0  0  0  0  0  0  0  0
  1  2  1  0  0  0  0
  2  3  1  0  0  0  0
  3  4  2  0  0  0  0
  4  5  2  0  0  0  0
  4  6  2  0  0  0  0
  6  7  1  0  0  0  0
  7  8  1  0  0  0  0
  4  9  1  0  0  0  0
  9 10  1  0  0  0  0
 10 11  1  0  0  0  0
 11 12  1  0  0  0  0
 12 13  2  0  0  0  0
 12 14  2  0  0  0  0
 14 15  1  0  0  0  0
 15 16  1  0  0  0  0
 12 17  2  0  0  0  0
 17 18  1  0  0  0  0
 18 19  1  0  0  0  0
  1 20  1  0  0  0  0
  1 21  1  0  0  0  0
  1 22  1  0  0  0  0
  2 23  1  0  0  0  0
  2 24  1  0  0  0  0
  7 25  1  0  0  0  0
  7 26  1  0  0  0  0
  8 27  1  0  0  0  0
  8 28  1  0  0  0  0
  8 29  1  0  0  0  0
 10 30  1  0  0  0  0
 10 31  1  0  0  0  0
 15 32  1  0  0  0  0
 15 33  1  0  0  0  0
 16 34  1  0  0  0  0
 16 35  1  0  0  0  0
 16 36  1  0  0  0  0
 18 37  1  0  0  0  0
 18 38  1  0  0  0  0
 19 39  1  0  0  0  0
 19 40  1  0  0  0  0
 19 41  1  0  0  0  0
M  END
