 xtb: 6.7.1 (edcfbbe)
          04092505213D

 41 40  0     0  0            999 V2000
    4.1653   -1.3556   -2.5715 C   0  0  0  0  0  0  0  0  0  0  0  0
    4.1940    0.1033   -2.1654 C   0  0  0  0  0  0  0  0  0  0  0  0
    3.5996    0.3276   -0.8726 O   0  0  0  0  0  0  0  0  0  0  0  0
    2.0524    0.1104   -0.5835 P   0  0  0  0  0  0  0  0  0  0  0  0
    0.8418    0.6807   -2.0087 S   0  0  0  0  0  0  0  0  0  0  0  0
    1.8558    0.9195    0.7549 O   0  0  0  0  0  0  0  0  0  0  0  0
    2.7298    0.7988    1.9096 C   0  0  0  0  0  0  0  0  0  0  0  0
    2.0124    0.0926    3.0422 C   0  0  0  0  0  0  0  0  0  0  0  0
    1.9071   -1.9423   -0.0659 S   0  0  0  0  0  0  0  0  0  0  0  0
    0.1071   -2.0648   -0.1801 C   0  0  0  0  0  0  0  0  0  0  0  0
   -0.7682   -1.3620    1.2616 S   0  0  0  0  0  0  0  0  0  0  0  0
   -1.7746    0.3610    0.5603 P   0  0  0  0  0  0  0  0  0  0  0  0
   -1.0401    2.1691    0.6625 S   0  0  0  0  0  0  0  0  0  0  0  0
   -3.0624    0.3285    1.4909 O   0  0  0  0  0  0  0  0  0  0  0  0
   -3.9511   -0.8129    1.5762 C   0  0  0  0  0  0  0  0  0  0  0  0
   -5.3462   -0.3004    1.8719 C   0  0  0  0  0  0  0  0  0  0  0  0
   -2.2123   -0.1756   -0.8818 O   0  0  0  0  0  0  0  0  0  0  0  0
   -2.6273    0.7247   -1.9246 C   0  0  0  0  0  0  0  0  0  0  0  0
   -4.0023    1.2950   -1.6484 C   0  0  0  0  0  0  0  0  0  0  0  0
    4.5807   -1.9776   -1.7827 H   0  0  0  0  0  0  0  0  0  0  0  0
    3.1414   -1.6695   -2.7663 H   0  0  0  0  0  0  0  0  0  0  0  0
    4.7497   -1.4827   -3.4771 H   0  0  0  0  0  0  0  0  0  0  0  0
    3.6636    0.7188   -2.8984 H   0  0  0  0  0  0  0  0  0  0  0  0
    5.2145    0.4693   -2.0435 H   0  0  0  0  0  0  0  0  0  0  0  0
    3.6381    0.2696    1.6153 H   0  0  0  0  0  0  0  0  0  0  0  0
    2.9713    1.8290    2.1763 H   0  0  0  0  0  0  0  0  0  0  0  0
    2.6328    0.1336    3.9317 H   0  0  0  0  0  0  0  0  0  0  0  0
    1.0649    0.5876    3.2445 H   0  0  0  0  0  0  0  0  0  0  0  0
    1.8156   -0.9474    2.7919 H   0  0  0  0  0  0  0  0  0  0  0  0
   -0.1282   -3.1254   -0.1971 H   0  0  0  0  0  0  0  0  0  0  0  0
   -0.2327   -1.5605   -1.0848 H   0  0  0  0  0  0  0  0  0  0  0  0
   -3.9164   -1.3619    0.6315 H   0  0  0  0  0  0  0  0  0  0  0  0
   -3.5840   -1.4536    2.3810 H   0  0  0  0  0  0  0  0  0  0  0  0
   -5.6978    0.3338    1.0628 H   0  0  0  0  0  0  0  0  0  0  0  0
   -6.0182   -1.1449    1.9857 H   0  0  0  0  0  0  0  0  0  0  0  0
   -5.3384    0.2806    2.7895 H   0  0  0  0  0  0  0  0  0  0  0  0
   -1.8834    1.5229   -2.0138 H   0  0  0  0  0  0  0  0  0  0  0  0
   -2.6071    0.1125   -2.8274 H   0  0  0  0  0  0  0  0  0  0  0  0
   -3.9760    1.8827   -0.7307 H   0  0  0  0  0  0  0  0  0  0  0  0
   -4.2929    1.9403   -2.4713 H   0  0  0  0  0  0  0  0  0  0  0  0
   -4.7302    0.4945   -1.5431 H   0  0  0  0  0  0  0  0  0  0  0  0
  1  2  1  0  0  0  0
  2  3  1  0  0  0  0
  3  4  2  0  0  0  0
  4  5  2  0  0  0  0
  4  6  2  0  0  0  0
  6  7  1  0  0  0  0
  7  8  1  0  0  0  0
  4  9  1  0  0  0  0
  9 10  1  0  0  0  0
 10 11  1  0  0  0  0
 11 12  1  0  0  0  0
 12 13  2  0  0  0  0
 12 14  2  0  0  0  0
 14 15  1  0  0  0  0
 15 16  1  0  0  0  0
 12 17  1  0  0  0  0
 17 18  1  0  0  0  0
 18 19  1  0  0  0  0
  1 20  1  0  0  0  0
  1 21  1  0  0  0  0
  1 22  1  0  0  0  0
  2 23  1  0  0  0  0
  2 24  1  0  0  0  0
  7 25  1  0  0  0  0
  7 26  1  0  0  0  0
  8 27  1  0  0  0  0
  8 28  1  0  0  0  0
  8 29  1  0  0  0  0
 10 30  1  0  0  0  0
 10 31  1  0  0  0  0
 15 32  1  0  0  0  0
 15 33  1  0  0  0  0
 16 34  1  0  0  0  0
 16 35  1  0  0  0  0
 16 36  1  0  0  0  0
 18 37  1  0  0  0  0
 18 38  1  0  0  0  0
 19 39  1  0  0  0  0
 19 40  1  0  0  0  0
 19 41  1  0  0  0  0
M  END
