38
 xtb: 6.7.1 (edcfbbe)
C            5.68190725427812       -1.51348432654500       -0.62758857351872
C            4.71670199301886       -2.35693984613374       -1.42597496050600
O            3.42991663655716       -2.47192525612862       -0.72799249643360
C            2.56475312822425       -1.46314115998611       -0.88349599294154
O            2.75731199131134       -0.48660222256453       -1.58751771952425
C            1.31120889888841       -1.69142703481750       -0.07751104201785
C            0.32589785253128       -0.54984458210032       -0.29400311360353
H           -0.03640989630421       -0.53697912729738       -1.32515261229074
C            0.87359674550711        0.82857371293648        0.02556769186031
O            0.55737178580392        1.82906191882010       -0.59279365649915
O            1.69730328179878        0.80612737761358        1.07630897062481
C            2.23551549556208        2.09446838664805        1.52899491179632
C            1.22428019502637        2.83464569279355        2.37109979556588
S           -1.13572405495521       -0.84560357387279        0.81233854247628
P           -2.65194326463834        0.28785318490365       -0.16390894261882
S           -2.71128445566438        0.15667256222605       -2.09738332088722
O           -3.92458771703462       -0.22038258108645        0.68216701815056
C           -4.54587303837235       -1.50318083298130        0.37671878037441
O           -2.53488174526047        1.81076242426703        0.32283586607984
C           -2.52532542676495        2.15841968971488        1.74051930962570
H            5.83451917258402       -1.93668605328895        0.36932125476539
H            6.64684429560504       -1.49506413478592       -1.14401570633730
H            5.32614601387033       -0.48438714802178       -0.52829370148572
H            5.05803474992054       -3.38978895698921       -1.51110841509305
H            4.53620646079803       -1.95142288990841       -2.42414265328907
H            1.59430289832693       -1.80145423573182        0.97432685858169
H            0.86332487495181       -2.63997397822951       -0.39106118484154
H            3.11617081365331        1.81378599811633        2.10871029045920
H            2.54642585728993        2.66618544245599        0.65103767833078
H            0.90335734806755        2.22318034965932        3.21948685398392
H            1.69118259029947        3.74453049166026        2.76152922422257
H            0.34834307189108        3.12357365813123        1.78494473969060
H           -5.33707519491682       -1.62628715137727        1.11603815498489
H           -3.81800389789301       -2.31400643634517        0.46849819557203
H           -4.96719822613333       -1.47965003817399       -0.63102089133180
H           -1.74354484792344        1.60140529576632        2.26388154771405
H           -3.50407319244250        1.95310262464559        2.17940530524604
H           -2.31155597418536        3.22625687973240        1.77539432540853
