 xtb: 6.7.1 (edcfbbe)
          04092505203D

 41 40  0     0  0            999 V2000
    1.4421   -0.1837   -3.0437 C   0  0  0  0  0  0  0  0  0  0  0  0
    2.4936    0.3721   -2.1038 C   0  0  0  0  0  0  0  0  0  0  0  0
    2.8113   -0.5825   -1.0773 O   0  0  0  0  0  0  0  0  0  0  0  0
    2.2329   -0.5368    0.4060 P   0  0  0  0  0  0  0  0  0  0  0  0
    2.3746    1.2177    1.2817 S   0  0  0  0  0  0  0  0  0  0  0  0
    3.0647   -1.7098    1.0683 O   0  0  0  0  0  0  0  0  0  0  0  0
    4.4469   -1.5405    1.4588 C   0  0  0  0  0  0  0  0  0  0  0  0
    4.5437   -1.2894    2.9505 C   0  0  0  0  0  0  0  0  0  0  0  0
    0.3671   -1.4947    0.3595 S   0  0  0  0  0  0  0  0  0  0  0  0
   -0.4981   -0.5120    1.6411 C   0  0  0  0  0  0  0  0  0  0  0  0
   -2.2465   -0.3089    1.2614 S   0  0  0  0  0  0  0  0  0  0  0  0
   -2.0371    0.7204   -0.5957 P   0  0  0  0  0  0  0  0  0  0  0  0
   -0.5417    1.9703   -0.7636 S   0  0  0  0  0  0  0  0  0  0  0  0
   -3.4839    1.3432   -0.8238 O   0  0  0  0  0  0  0  0  0  0  0  0
   -3.8730    2.6351   -0.3252 C   0  0  0  0  0  0  0  0  0  0  0  0
   -3.8893    2.6925    1.1886 C   0  0  0  0  0  0  0  0  0  0  0  0
   -1.9964   -0.3956   -1.7079 O   0  0  0  0  0  0  0  0  0  0  0  0
   -3.0172   -1.4228   -1.8328 C   0  0  0  0  0  0  0  0  0  0  0  0
   -2.4255   -2.7822   -1.5209 C   0  0  0  0  0  0  0  0  0  0  0  0
    1.3064    0.5065   -3.8702 H   0  0  0  0  0  0  0  0  0  0  0  0
    1.7583   -1.1510   -3.4236 H   0  0  0  0  0  0  0  0  0  0  0  0
    0.4902   -0.2992   -2.5282 H   0  0  0  0  0  0  0  0  0  0  0  0
    2.1576    1.3061   -1.6406 H   0  0  0  0  0  0  0  0  0  0  0  0
    3.4367    0.5461   -2.6258 H   0  0  0  0  0  0  0  0  0  0  0  0
    4.9315   -2.4767    1.1771 H   0  0  0  0  0  0  0  0  0  0  0  0
    4.8849   -0.7154    0.8908 H   0  0  0  0  0  0  0  0  0  0  0  0
    4.0547   -0.3509    3.2037 H   0  0  0  0  0  0  0  0  0  0  0  0
    4.0611   -2.0960    3.4950 H   0  0  0  0  0  0  0  0  0  0  0  0
    5.5887   -1.2337    3.2379 H   0  0  0  0  0  0  0  0  0  0  0  0
   -0.0128    0.4664    1.7034 H   0  0  0  0  0  0  0  0  0  0  0  0
   -0.4509   -1.0373    2.5916 H   0  0  0  0  0  0  0  0  0  0  0  0
   -3.1841    3.3823   -0.7311 H   0  0  0  0  0  0  0  0  0  0  0  0
   -4.8693    2.7828   -0.7447 H   0  0  0  0  0  0  0  0  0  0  0  0
   -4.3170    3.6384    1.5052 H   0  0  0  0  0  0  0  0  0  0  0  0
   -4.4792    1.8742    1.5937 H   0  0  0  0  0  0  0  0  0  0  0  0
   -2.8740    2.6204    1.5760 H   0  0  0  0  0  0  0  0  0  0  0  0
   -3.8461   -1.1854   -1.1628 H   0  0  0  0  0  0  0  0  0  0  0  0
   -3.3531   -1.3616   -2.8689 H   0  0  0  0  0  0  0  0  0  0  0  0
   -3.1798   -3.5433   -1.6922 H   0  0  0  0  0  0  0  0  0  0  0  0
   -1.5684   -2.9734   -2.1601 H   0  0  0  0  0  0  0  0  0  0  0  0
   -2.0975   -2.8289   -0.4850 H   0  0  0  0  0  0  0  0  0  0  0  0
  1  2  1  0  0  0  0
  2  3  1  0  0  0  0
  3  4  2  0  0  0  0
  4  5  2  0  0  0  0
  4  6  2  0  0  0  0
  6  7  1  0  0  0  0
  7  8  1  0  0  0  0
  4  9  1  0  0  0  0
  9 10  1  0  0  0  0
 10 11  1  0  0  0  0
 11 12  1  0  0  0  0
 12 13  2  0  0  0  0
 12 14  2  0  0  0  0
 14 15  1  0  0  0  0
 15 16  1  0  0  0  0
 12 17  2  0  0  0  0
 17 18  1  0  0  0  0
 18 19  1  0  0  0  0
  1 20  1  0  0  0  0
  1 21  1  0  0  0  0
  1 22  1  0  0  0  0
  2 23  1  0  0  0  0
  2 24  1  0  0  0  0
  7 25  1  0  0  0  0
  7 26  1  0  0  0  0
  8 27  1  0  0  0  0
  8 28  1  0  0  0  0
  8 29  1  0  0  0  0
 10 30  1  0  0  0  0
 10 31  1  0  0  0  0
 15 32  1  0  0  0  0
 15 33  1  0  0  0  0
 16 34  1  0  0  0  0
 16 35  1  0  0  0  0
 16 36  1  0  0  0  0
 18 37  1  0  0  0  0
 18 38  1  0  0  0  0
 19 39  1  0  0  0  0
 19 40  1  0  0  0  0
 19 41  1  0  0  0  0
M  END
