 xtb: 6.7.1 (edcfbbe)
          04092505213D

 41 40  0     0  0            999 V2000
    2.7464    2.1525   -2.0710 C   0  0  0  0  0  0  0  0  0  0  0  0
    3.3086    1.2381   -1.0023 C   0  0  0  0  0  0  0  0  0  0  0  0
    2.2886    1.0422    0.0128 O   0  0  0  0  0  0  0  0  0  0  0  0
    2.0979   -0.3161    0.7882 P   0  0  0  0  0  0  0  0  0  0  0  0
    0.6422   -0.1233    2.0811 S   0  0  0  0  0  0  0  0  0  0  0  0
    3.5679   -0.5659    1.3373 O   0  0  0  0  0  0  0  0  0  0  0  0
    4.0876   -1.8268    1.8003 C   0  0  0  0  0  0  0  0  0  0  0  0
    3.2241   -2.4584    2.8718 C   0  0  0  0  0  0  0  0  0  0  0  0
    1.8804   -1.8636   -0.6676 S   0  0  0  0  0  0  0  0  0  0  0  0
    0.1085   -1.7015   -0.9304 C   0  0  0  0  0  0  0  0  0  0  0  0
   -0.3071   -0.0802   -1.6694 S   0  0  0  0  0  0  0  0  0  0  0  0
   -2.1504    0.2979   -0.7240 P   0  0  0  0  0  0  0  0  0  0  0  0
   -2.6912   -0.8939    0.7425 S   0  0  0  0  0  0  0  0  0  0  0  0
   -3.1014    0.2281   -1.9881 O   0  0  0  0  0  0  0  0  0  0  0  0
   -4.5208    0.0101   -1.8700 C   0  0  0  0  0  0  0  0  0  0  0  0
   -5.2190    1.2061   -1.2583 C   0  0  0  0  0  0  0  0  0  0  0  0
   -2.1277    1.8685   -0.4720 O   0  0  0  0  0  0  0  0  0  0  0  0
   -1.2872    2.5559    0.4683 C   0  0  0  0  0  0  0  0  0  0  0  0
   -1.8804    2.5424    1.8630 C   0  0  0  0  0  0  0  0  0  0  0  0
    2.4472    3.0998   -1.6318 H   0  0  0  0  0  0  0  0  0  0  0  0
    3.5083    2.3292   -2.8231 H   0  0  0  0  0  0  0  0  0  0  0  0
    1.8787    1.6930   -2.5386 H   0  0  0  0  0  0  0  0  0  0  0  0
    4.1725    1.6807   -0.5039 H   0  0  0  0  0  0  0  0  0  0  0  0
    3.5856    0.2651   -1.4177 H   0  0  0  0  0  0  0  0  0  0  0  0
    4.1829   -2.4921    0.9380 H   0  0  0  0  0  0  0  0  0  0  0  0
    5.0762   -1.5696    2.1845 H   0  0  0  0  0  0  0  0  0  0  0  0
    3.7027   -3.3614    3.2366 H   0  0  0  0  0  0  0  0  0  0  0  0
    3.0786   -1.7677    3.6992 H   0  0  0  0  0  0  0  0  0  0  0  0
    2.2469   -2.7153    2.4647 H   0  0  0  0  0  0  0  0  0  0  0  0
   -0.4218   -1.7910    0.0229 H   0  0  0  0  0  0  0  0  0  0  0  0
   -0.1743   -2.4953   -1.6172 H   0  0  0  0  0  0  0  0  0  0  0  0
   -4.8437   -0.1710   -2.8958 H   0  0  0  0  0  0  0  0  0  0  0  0
   -4.6843   -0.8852   -1.2614 H   0  0  0  0  0  0  0  0  0  0  0  0
   -4.8840    1.3376   -0.2299 H   0  0  0  0  0  0  0  0  0  0  0  0
   -4.9849    2.1061   -1.8207 H   0  0  0  0  0  0  0  0  0  0  0  0
   -6.2919    1.0416   -1.2632 H   0  0  0  0  0  0  0  0  0  0  0  0
   -0.2901    2.1037    0.4684 H   0  0  0  0  0  0  0  0  0  0  0  0
   -1.2257    3.5714    0.0724 H   0  0  0  0  0  0  0  0  0  0  0  0
   -1.9071    1.5262    2.2525 H   0  0  0  0  0  0  0  0  0  0  0  0
   -1.2606    3.1444    2.5197 H   0  0  0  0  0  0  0  0  0  0  0  0
   -2.8900    2.9436    1.8476 H   0  0  0  0  0  0  0  0  0  0  0  0
  1  2  1  0  0  0  0
  2  3  1  0  0  0  0
  3  4  2  0  0  0  0
  4  5  2  0  0  0  0
  4  6  2  0  0  0  0
  6  7  1  0  0  0  0
  7  8  1  0  0  0  0
  4  9  1  0  0  0  0
  9 10  1  0  0  0  0
 10 11  1  0  0  0  0
 11 12  1  0  0  0  0
 12 13  2  0  0  0  0
 12 14  2  0  0  0  0
 14 15  1  0  0  0  0
 15 16  1  0  0  0  0
 12 17  2  0  0  0  0
 17 18  1  0  0  0  0
 18 19  1  0  0  0  0
  1 20  1  0  0  0  0
  1 21  1  0  0  0  0
  1 22  1  0  0  0  0
  2 23  1  0  0  0  0
  2 24  1  0  0  0  0
  7 25  1  0  0  0  0
  7 26  1  0  0  0  0
  8 27  1  0  0  0  0
  8 28  1  0  0  0  0
  8 29  1  0  0  0  0
 10 30  1  0  0  0  0
 10 31  1  0  0  0  0
 15 32  1  0  0  0  0
 15 33  1  0  0  0  0
 16 34  1  0  0  0  0
 16 35  1  0  0  0  0
 16 36  1  0  0  0  0
 18 37  1  0  0  0  0
 18 38  1  0  0  0  0
 19 39  1  0  0  0  0
 19 40  1  0  0  0  0
 19 41  1  0  0  0  0
M  END
