41
 xtb: 6.7.1 (edcfbbe)
C            1.29057419087197       -0.87511406964045       -3.03777501033483
C            1.83710106552605        0.08220961293525       -2.01196980881775
O            2.70087262899865       -0.67964248113069       -1.09545522969319
P            2.68490625324570       -0.29700788108001        0.46606279615316
S            3.11854627997839        1.53831488021578        0.94715511701264
O            3.69657594337015       -1.45827776902914        0.92465887741813
C            4.14464257114545       -1.51107310456622        2.32357272693502
C            4.83714471297658       -2.83408874252526        2.51882477619229
S            0.80199361973243       -0.98842845043023        1.17899710259097
C           -0.02059973432586        0.55445978519516        1.78845626909302
S           -1.83819610379849        0.42778483313428        1.64228158995952
P           -2.10124379282191        1.00889444893358       -0.39456513278674
S           -1.20994349033087        2.65486587599748       -0.91799285184875
O           -3.70303372682656        0.93341213097622       -0.48291125665677
C           -4.57616558951914        2.11341918569290       -0.36836272693622
C           -4.75799475703328        2.54453747135232        1.06457132895816
O           -1.63270661902316       -0.21634606804451       -1.31119770490156
C           -2.21948608739230       -1.56526053370036       -1.18683399637185
C           -3.00308149752449       -1.87286476164345       -2.43652272705221
H            0.66999931843381       -0.31837054472765       -3.74691845892622
H            2.09920908099049       -1.35970793818611       -3.59240427047155
H            0.67147989048821       -1.64291657765700       -2.56394951263417
H            1.02856374513243        0.55691662381535       -1.44565859428329
H            2.45822768624947        0.86275521531872       -2.46011321029127
H            4.81796076062002       -0.66582557971961        2.49305008617064
H            3.27069912670591       -1.41375199827734        2.97714917205612
H            5.69334810955898       -2.93045161730262        1.84531735906468
H            5.20008741118018       -2.89345768496420        3.54930851262556
H            4.14888401300302       -3.66604192490676        2.34565222971009
H            0.34433126392914        1.42104331367488        1.22944920781819
H            0.19410672937071        0.68570285210281        2.85130479306189
H           -4.15464922934082        2.91023178001111       -0.98788496924395
H           -5.51526323018227        1.77548200899305       -0.81038630684479
H           -5.50114585444482        3.34792392207550        1.09215227677359
H           -5.12288812549480        1.71772958674383        1.68062360348556
H           -3.82747869665797        2.92839848809582        1.49212272850258
H           -1.36704645629099       -2.23641741522300       -1.05897967025247
H           -2.84346577005822       -1.61566933271779       -0.29004591269518
H           -3.38752204599107       -2.89578622495270       -2.36980135959920
H           -3.85012159179244       -1.19030902978239       -2.54801876525357
H           -2.36594735498778       -1.80140419137274       -3.32264249232431
