  30
 
 C          4.0919865837        1.5658475560        0.2654437232
 C          2.6379950312        1.2302542035        0.5422376413
 O          2.0562459175        0.7089519170       -0.6701686316
 C          0.8603994619        0.0490817320       -0.5036771936
 O          0.9716179710       -1.1003288415        0.2716400486
 C          1.7433917320       -2.1424516599       -0.3316224465
 C          1.7301925240       -3.3441920445        0.5957756858
 O         -0.0495061015        0.8987088447        0.1041123982
 C         -1.3979832894        0.5857664975        0.0672420088
 C         -1.9183301797       -0.6166997406       -0.3863182806
 C         -3.2910064958       -0.8117958413       -0.3802845062
 C         -4.1431354000        0.1762389306        0.0765826326
 C         -3.6176144638        1.3735566458        0.5366041646
 C         -2.2524404938        1.5820145772        0.5318544837
 H          4.5367130109        1.9932657113        1.1581518088
 H          4.6385339613        0.6705823463       -0.0166451888
 H          4.1534653093        2.2817617839       -0.5485607381
 H          2.0746234596        2.1207659731        0.8398467485
 H          2.5418678795        0.4734055671        1.3282460146
 H          0.5410512237       -0.2112867643       -1.5360682338
 H          1.2982789860       -2.3873556598       -1.3066889130
 H          2.7642589989       -1.7808259301       -0.5022269554
 H          2.2949464714       -4.1529611002        0.1442109697
 H          2.1751288888       -3.0802238696        1.5502669653
 H          0.7076311265       -3.6668411380        0.7679969632
 H         -1.2667116889       -1.4055628011       -0.7250157033
 H         -3.6881115525       -1.7503608662       -0.7344771646
 H         -5.2092120158        0.0142353539        0.0790749181
 H         -4.2723052371        2.1503995520        0.8989704153
 H         -1.8223109893        2.5061078971        0.8822025475
          30
        -43.92090363
 C          3.2466587660       -2.1350105588       -0.6703162152
 C          1.7319401818       -1.9939674791       -0.6504511099
 O          1.2559760399       -1.3760267585        0.5600543764
 C          1.0688640390       -0.0121100010        0.5083956385
 O          2.2475879344        0.6285206707        0.1894152138
 C          2.3922908378        1.9697580811        0.6656263632
 C          1.5741033076        2.9924496471       -0.1106208520
 O          0.1056477866        0.3659582739       -0.4381033129
 C         -1.2282091366        0.1049897844       -0.1822989548
 C         -2.1356902359        0.7530870913       -1.0161541559
 C         -3.4916382848        0.5592118358       -0.8411267408
 C         -3.9535637827       -0.2751437964        0.1647698892
 C         -3.0483452969       -0.9209067502        0.9864856253
 C         -1.6839335631       -0.7404260983        0.8189085327
 H          3.5762965369       -2.6847374473        0.2068591920
 H          3.5421042563       -2.6735404632       -1.5655162844
 H          3.7125818685       -1.1538629409       -0.6666496857
 H          1.2509929651       -2.9748465333       -0.6603152622
 H          1.3809112685       -1.4074047191       -1.5047161559
 H          0.7266818402        0.2713683213        1.5252527475
 H          2.1321300977        1.9949983919        1.7318809304
 H          3.4593228326        2.1655196603        0.5483660650
 H          0.5091311714        2.8258180463        0.0303214480
 H          1.8274288197        3.9883969984        0.2393519804
 H          1.7977869822        2.9151676574       -1.1709077697
 H         -1.7537580272        1.3985413299       -1.7908126700
 H         -4.1887067769        1.0643776946       -1.4909373537
 H         -5.0126642510       -0.4237170682        0.3031851352
 H         -3.3969306497       -1.5789976114        1.7672711313
 H         -0.9852177328       -1.2684705677        1.4489537558
