  19
 
 C         -3.0783585902        0.3578941664        0.0061895788
 C         -1.6191229182        0.0153271852        0.0194963135
 C         -1.1873272803       -1.3007077736        0.0776846517
 C          0.1658487827       -1.5967888843        0.0743495531
 C          1.1240517837       -0.6003491094        0.0126324290
 C          0.6887785279        0.7287849866       -0.0496665346
 C         -0.6655116351        1.0240297476       -0.0452366521
 O          1.6389793228        1.7066037743       -0.1112637141
 C          2.5915217161       -0.8979374901        0.0112861126
 H         -3.3970595175        0.5918003455       -1.0092502748
 H         -3.6733396770       -0.4768023733        0.3663820153
 H         -3.2755534356        1.2277542230        0.6284910662
 H         -1.9101424705       -2.1014174500        0.1278077921
 H          0.4860475031       -2.6274691349        0.1226858016
 H         -0.9872125381        2.0557408517       -0.0918435961
 H          1.2194835177        2.5786000305       -0.1503715340
 H          3.0449474910       -0.5383875774       -0.9111793772
 H          3.0781814703       -0.3781046834        0.8348730200
 H          2.7697547350       -1.9648936096        0.1046027113
          19
        -26.30186462
 C         -3.0763164346        0.3688975486        0.0010122953
 C         -1.6177988411        0.0227363360       -0.0013355310
 C         -1.1835600517       -1.2931380281       -0.0006498087
 C          0.1708121522       -1.5859255850        0.0002108805
 C          1.1268870898       -0.5859988154        0.0003276536
 C          0.6888627843        0.7440939970       -0.0000406714
 C         -0.6657095636        1.0357769629       -0.0007683359
 O          1.6374966236        1.7253054512        0.0001140081
 C          2.5952382125       -0.8800117920        0.0003400823
 H         -3.6859281519       -0.5289645003       -0.0488340083
 H         -3.3334329458        0.9141555178        0.9079877327
 H         -3.3173528884        1.0034575895       -0.8500955990
 H         -1.9041652764       -2.0974456839       -0.0007591055
 H          0.4928112558       -2.6171768191        0.0006310506
 H         -0.9906550477        2.0675074883       -0.0011137467
 H          1.2165138223        2.5974667324        0.0009201748
 H          3.0632804925       -0.4436952990       -0.8813608380
 H          3.0662362503       -0.4293320870        0.8730581974
 H          2.7750020216       -1.9513487315        0.0085224860
