 xtb: 6.7.1 (edcfbbe)
          04092505213D

 41 40  0     0  0            999 V2000
    1.8798   -2.1059   -2.2374 C   0  0  0  0  0  0  0  0  0  0  0  0
    2.2774   -0.6600   -2.4500 C   0  0  0  0  0  0  0  0  0  0  0  0
    1.8081    0.2205   -1.3957 O   0  0  0  0  0  0  0  0  0  0  0  0
    2.1394    0.0544    0.1371 P   0  0  0  0  0  0  0  0  0  0  0  0
    2.0788    1.7337    1.1431 S   0  0  0  0  0  0  0  0  0  0  0  0
    3.5588   -0.6608    0.0686 O   0  0  0  0  0  0  0  0  0  0  0  0
    4.3106   -0.9912    1.2529 C   0  0  0  0  0  0  0  0  0  0  0  0
    5.3139    0.0970    1.5808 C   0  0  0  0  0  0  0  0  0  0  0  0
    0.8911   -1.4878    0.9291 S   0  0  0  0  0  0  0  0  0  0  0  0
   -0.2149   -0.5242    2.0011 C   0  0  0  0  0  0  0  0  0  0  0  0
   -1.9638   -0.8363    1.6634 S   0  0  0  0  0  0  0  0  0  0  0  0
   -2.1625    0.1650   -0.1764 P   0  0  0  0  0  0  0  0  0  0  0  0
   -1.0422    1.7539   -0.4967 S   0  0  0  0  0  0  0  0  0  0  0  0
   -3.7349    0.3483   -0.3179 O   0  0  0  0  0  0  0  0  0  0  0  0
   -4.6058    0.9179    0.6758 C   0  0  0  0  0  0  0  0  0  0  0  0
   -4.1216    2.2585    1.1880 C   0  0  0  0  0  0  0  0  0  0  0  0
   -1.8928   -1.0068   -1.2129 O   0  0  0  0  0  0  0  0  0  0  0  0
   -1.6345   -0.7429   -2.6060 C   0  0  0  0  0  0  0  0  0  0  0  0
   -2.8498   -0.1746   -3.3071 C   0  0  0  0  0  0  0  0  0  0  0  0
    2.1577   -2.6791   -3.1164 H   0  0  0  0  0  0  0  0  0  0  0  0
    2.3906   -2.5176   -1.3694 H   0  0  0  0  0  0  0  0  0  0  0  0
    0.8080   -2.1906   -2.0782 H   0  0  0  0  0  0  0  0  0  0  0  0
    1.8142   -0.2405   -3.3449 H   0  0  0  0  0  0  0  0  0  0  0  0
    3.3624   -0.5596   -2.5124 H   0  0  0  0  0  0  0  0  0  0  0  0
    3.6199   -1.1513    2.0852 H   0  0  0  0  0  0  0  0  0  0  0  0
    4.8107   -1.9304    1.0082 H   0  0  0  0  0  0  0  0  0  0  0  0
    5.9027   -0.2070    2.4401 H   0  0  0  0  0  0  0  0  0  0  0  0
    5.9731    0.2661    0.7339 H   0  0  0  0  0  0  0  0  0  0  0  0
    4.7980    1.0259    1.8133 H   0  0  0  0  0  0  0  0  0  0  0  0
    0.0152    0.5377    1.8671 H   0  0  0  0  0  0  0  0  0  0  0  0
   -0.0547   -0.8322    3.0312 H   0  0  0  0  0  0  0  0  0  0  0  0
   -5.5609    1.0117    0.1560 H   0  0  0  0  0  0  0  0  0  0  0  0
   -4.6981    0.2008    1.4961 H   0  0  0  0  0  0  0  0  0  0  0  0
   -3.9710    2.9505    0.3625 H   0  0  0  0  0  0  0  0  0  0  0  0
   -4.8555    2.6704    1.8732 H   0  0  0  0  0  0  0  0  0  0  0  0
   -3.1739    2.1412    1.7129 H   0  0  0  0  0  0  0  0  0  0  0  0
   -0.7906   -0.0478   -2.6748 H   0  0  0  0  0  0  0  0  0  0  0  0
   -1.3569   -1.7171   -3.0113 H   0  0  0  0  0  0  0  0  0  0  0  0
   -2.6408   -0.0755   -4.3678 H   0  0  0  0  0  0  0  0  0  0  0  0
   -3.7054   -0.8286   -3.1628 H   0  0  0  0  0  0  0  0  0  0  0  0
   -3.0846    0.8068   -2.8966 H   0  0  0  0  0  0  0  0  0  0  0  0
  1  2  1  0  0  0  0
  2  3  1  0  0  0  0
  3  4  2  0  0  0  0
  4  5  2  0  0  0  0
  4  6  2  0  0  0  0
  6  7  1  0  0  0  0
  7  8  1  0  0  0  0
  4  9  1  0  0  0  0
  9 10  1  0  0  0  0
 10 11  1  0  0  0  0
 11 12  1  0  0  0  0
 12 13  2  0  0  0  0
 12 14  2  0  0  0  0
 14 15  1  0  0  0  0
 15 16  1  0  0  0  0
 12 17  2  0  0  0  0
 17 18  1  0  0  0  0
 18 19  1  0  0  0  0
  1 20  1  0  0  0  0
  1 21  1  0  0  0  0
  1 22  1  0  0  0  0
  2 23  1  0  0  0  0
  2 24  1  0  0  0  0
  7 25  1  0  0  0  0
  7 26  1  0  0  0  0
  8 27  1  0  0  0  0
  8 28  1  0  0  0  0
  8 29  1  0  0  0  0
 10 30  1  0  0  0  0
 10 31  1  0  0  0  0
 15 32  1  0  0  0  0
 15 33  1  0  0  0  0
 16 34  1  0  0  0  0
 16 35  1  0  0  0  0
 16 36  1  0  0  0  0
 18 37  1  0  0  0  0
 18 38  1  0  0  0  0
 19 39  1  0  0  0  0
 19 40  1  0  0  0  0
 19 41  1  0  0  0  0
M  END
