 xtb: 6.7.1 (edcfbbe)
          04092505203D

 41 40  0     0  0            999 V2000
    0.0081   -1.3784    3.0733 C   0  0  0  0  0  0  0  0  0  0  0  0
    1.2979   -1.4936    2.2877 C   0  0  0  0  0  0  0  0  0  0  0  0
    1.5389   -0.2431    1.6061 O   0  0  0  0  0  0  0  0  0  0  0  0
    2.3188   -0.1095    0.2343 P   0  0  0  0  0  0  0  0  0  0  0  0
    3.0267   -1.8040   -0.4630 S   0  0  0  0  0  0  0  0  0  0  0  0
    3.3515    1.0023    0.6901 O   0  0  0  0  0  0  0  0  0  0  0  0
    4.0640    1.8925   -0.1892 C   0  0  0  0  0  0  0  0  0  0  0  0
    4.8421    1.1597   -1.2625 C   0  0  0  0  0  0  0  0  0  0  0  0
    1.0383    0.9636   -1.0809 S   0  0  0  0  0  0  0  0  0  0  0  0
    0.2467   -0.4855   -1.8239 C   0  0  0  0  0  0  0  0  0  0  0  0
   -0.7219   -1.4400   -0.6308 S   0  0  0  0  0  0  0  0  0  0  0  0
   -2.1041    0.1072   -0.1745 P   0  0  0  0  0  0  0  0  0  0  0  0
   -2.6644    1.2314   -1.6850 S   0  0  0  0  0  0  0  0  0  0  0  0
   -1.3985    0.8895    1.0080 O   0  0  0  0  0  0  0  0  0  0  0  0
   -1.4229    2.3208    1.1344 C   0  0  0  0  0  0  0  0  0  0  0  0
   -2.7267    2.7790    1.7536 C   0  0  0  0  0  0  0  0  0  0  0  0
   -3.2246   -0.6495    0.6547 O   0  0  0  0  0  0  0  0  0  0  0  0
   -3.9101   -1.8469    0.2440 C   0  0  0  0  0  0  0  0  0  0  0  0
   -4.5564   -1.7177   -1.1198 C   0  0  0  0  0  0  0  0  0  0  0  0
   -0.1632   -2.3078    3.6064 H   0  0  0  0  0  0  0  0  0  0  0  0
    0.0780   -0.5600    3.7837 H   0  0  0  0  0  0  0  0  0  0  0  0
   -0.8291   -1.1892    2.4059 H   0  0  0  0  0  0  0  0  0  0  0  0
    1.2495   -2.3021    1.5506 H   0  0  0  0  0  0  0  0  0  0  0  0
    2.1485   -1.6703    2.9504 H   0  0  0  0  0  0  0  0  0  0  0  0
    3.3433    2.5835   -0.6358 H   0  0  0  0  0  0  0  0  0  0  0  0
    4.7288    2.4368    0.4839 H   0  0  0  0  0  0  0  0  0  0  0  0
    4.1598    0.6474   -1.9393 H   0  0  0  0  0  0  0  0  0  0  0  0
    5.4329    1.8723   -1.8291 H   0  0  0  0  0  0  0  0  0  0  0  0
    5.5016    0.4205   -0.8140 H   0  0  0  0  0  0  0  0  0  0  0  0
    1.0085   -1.1597   -2.2153 H   0  0  0  0  0  0  0  0  0  0  0  0
   -0.4055   -0.1113   -2.6127 H   0  0  0  0  0  0  0  0  0  0  0  0
   -0.5636    2.5510    1.7663 H   0  0  0  0  0  0  0  0  0  0  0  0
   -1.2822    2.7695    0.1450 H   0  0  0  0  0  0  0  0  0  0  0  0
   -3.5539    2.5143    1.0958 H   0  0  0  0  0  0  0  0  0  0  0  0
   -2.8763    2.2971    2.7157 H   0  0  0  0  0  0  0  0  0  0  0  0
   -2.7073    3.8562    1.8845 H   0  0  0  0  0  0  0  0  0  0  0  0
   -3.1926   -2.6725    0.2554 H   0  0  0  0  0  0  0  0  0  0  0  0
   -4.6562   -1.9944    1.0270 H   0  0  0  0  0  0  0  0  0  0  0  0
   -5.1350   -2.6115   -1.3301 H   0  0  0  0  0  0  0  0  0  0  0  0
   -5.2112   -0.8499   -1.1492 H   0  0  0  0  0  0  0  0  0  0  0  0
   -3.7940   -1.6004   -1.8888 H   0  0  0  0  0  0  0  0  0  0  0  0
  1  2  1  0  0  0  0
  2  3  1  0  0  0  0
  3  4  2  0  0  0  0
  4  5  2  0  0  0  0
  4  6  2  0  0  0  0
  6  7  1  0  0  0  0
  7  8  1  0  0  0  0
  4  9  1  0  0  0  0
  9 10  1  0  0  0  0
 10 11  1  0  0  0  0
 11 12  1  0  0  0  0
 12 13  2  0  0  0  0
 12 14  2  0  0  0  0
 14 15  1  0  0  0  0
 15 16  1  0  0  0  0
 12 17  2  0  0  0  0
 17 18  1  0  0  0  0
 18 19  1  0  0  0  0
  1 20  1  0  0  0  0
  1 21  1  0  0  0  0
  1 22  1  0  0  0  0
  2 23  1  0  0  0  0
  2 24  1  0  0  0  0
  7 25  1  0  0  0  0
  7 26  1  0  0  0  0
  8 27  1  0  0  0  0
  8 28  1  0  0  0  0
  8 29  1  0  0  0  0
 10 30  1  0  0  0  0
 10 31  1  0  0  0  0
 15 32  1  0  0  0  0
 15 33  1  0  0  0  0
 16 34  1  0  0  0  0
 16 35  1  0  0  0  0
 16 36  1  0  0  0  0
 18 37  1  0  0  0  0
 18 38  1  0  0  0  0
 19 39  1  0  0  0  0
 19 40  1  0  0  0  0
 19 41  1  0  0  0  0
M  END
