 xtb: 6.7.1 (edcfbbe)
          04092509473D

 38 37  0     0  0            999 V2000
    5.1911   -3.3405   -1.8397 C   0  0  0  0  0  0  0  0  0  0  0  0
    4.2077   -2.7312   -0.8590 C   0  0  0  0  0  0  0  0  0  0  0  0
    3.1810   -2.0558   -1.6150 O   0  0  0  0  0  0  0  0  0  0  0  0
    2.3662   -1.2421   -0.9816 C   0  0  0  0  0  0  0  0  0  0  0  0
    2.4039   -1.0230    0.2121 O   0  0  0  0  0  0  0  0  0  0  0  0
    1.3856   -0.5831   -1.9293 C   0  0  0  0  0  0  0  0  0  0  0  0
    0.3355    0.2013   -1.1507 C   0  0  0  0  0  0  0  0  0  0  0  0
   -0.2600    0.8176   -1.8343 H   0  0  0  0  0  0  0  0  0  0  0  0
    1.0266    1.1484   -0.1852 C   0  0  0  0  0  0  0  0  0  0  0  0
    1.9430    1.8526   -0.5517 O   0  0  0  0  0  0  0  0  0  0  0  0
    0.5150    1.1723    1.0257 O   0  0  0  0  0  0  0  0  0  0  0  0
    1.1664    2.0587    1.9645 C   0  0  0  0  0  0  0  0  0  0  0  0
    0.6606    1.7782    3.3635 C   0  0  0  0  0  0  0  0  0  0  0  0
   -0.8120   -0.9434   -0.3197 S   0  0  0  0  0  0  0  0  0  0  0  0
   -2.3107    0.4521    0.2480 P   0  0  0  0  0  0  0  0  0  0  0  0
   -2.3440    2.1497   -0.7245 S   0  0  0  0  0  0  0  0  0  0  0  0
   -3.6528   -0.4166    0.1307 O   0  0  0  0  0  0  0  0  0  0  0  0
   -4.2349   -0.7656   -1.1311 C   0  0  0  0  0  0  0  0  0  0  0  0
   -2.2425    0.6423    1.8134 O   0  0  0  0  0  0  0  0  0  0  0  0
   -2.1704   -0.4860    2.7073 C   0  0  0  0  0  0  0  0  0  0  0  0
    4.6800   -4.0417   -2.4921 H   0  0  0  0  0  0  0  0  0  0  0  0
    5.6450   -2.5633   -2.4474 H   0  0  0  0  0  0  0  0  0  0  0  0
    5.9674   -3.8626   -1.2903 H   0  0  0  0  0  0  0  0  0  0  0  0
    4.6869   -2.0028   -0.1975 H   0  0  0  0  0  0  0  0  0  0  0  0
    3.7270   -3.4964   -0.2423 H   0  0  0  0  0  0  0  0  0  0  0  0
    0.9256   -1.3383   -2.5653 H   0  0  0  0  0  0  0  0  0  0  0  0
    1.9538    0.1079   -2.5563 H   0  0  0  0  0  0  0  0  0  0  0  0
    2.2448    1.8889    1.8801 H   0  0  0  0  0  0  0  0  0  0  0  0
    0.9517    3.0859    1.6526 H   0  0  0  0  0  0  0  0  0  0  0  0
    0.8762    0.7506    3.6406 H   0  0  0  0  0  0  0  0  0  0  0  0
    1.1634    2.4475    4.0545 H   0  0  0  0  0  0  0  0  0  0  0  0
   -0.4103    1.9503    3.4130 H   0  0  0  0  0  0  0  0  0  0  0  0
   -4.3819    0.1296   -1.7370 H   0  0  0  0  0  0  0  0  0  0  0  0
   -5.1926   -1.2227   -0.8928 H   0  0  0  0  0  0  0  0  0  0  0  0
   -3.5943   -1.4723   -1.6577 H   0  0  0  0  0  0  0  0  0  0  0  0
   -1.2533   -1.0438    2.5180 H   0  0  0  0  0  0  0  0  0  0  0  0
   -3.0366   -1.1298    2.5684 H   0  0  0  0  0  0  0  0  0  0  0  0
   -2.1617   -0.0606    3.7071 H   0  0  0  0  0  0  0  0  0  0  0  0
  1  2  1  0  0  0  0
  2  3  1  0  0  0  0
  3  4  4  0  0  0  0
  4  5  2  0  0  0  0
  4  6  1  0  0  0  0
  6  7  1  0  0  0  0
  7  8  1  0  0  0  0
  7  9  1  0  0  0  0
  9 10  2  0  0  0  0
  9 11  1  0  0  0  0
 11 12  1  0  0  0  0
 12 13  1  0  0  0  0
  7 14  1  0  0  0  0
 14 15  1  0  0  0  0
 15 16  2  0  0  0  0
 15 17  1  0  0  0  0
 17 18  1  0  0  0  0
 15 19  2  0  0  0  0
 19 20  1  0  0  0  0
  1 21  1  0  0  0  0
  1 22  1  0  0  0  0
  1 23  1  0  0  0  0
  2 24  1  0  0  0  0
  2 25  1  0  0  0  0
  6 26  1  0  0  0  0
  6 27  1  0  0  0  0
 12 28  1  0  0  0  0
 12 29  1  0  0  0  0
 13 30  1  0  0  0  0
 13 31  1  0  0  0  0
 13 32  1  0  0  0  0
 18 33  1  0  0  0  0
 18 34  1  0  0  0  0
 18 35  1  0  0  0  0
 20 36  1  0  0  0  0
 20 37  1  0  0  0  0
 20 38  1  0  0  0  0
M  END
