 xtb: 6.7.1 (edcfbbe)
          04092505203D

 41 40  0     0  0            999 V2000
    2.3711    2.0157   -1.8831 C   0  0  0  0  0  0  0  0  0  0  0  0
    3.3081    2.0902   -0.6944 C   0  0  0  0  0  0  0  0  0  0  0  0
    3.4254    0.8243   -0.0219 O   0  0  0  0  0  0  0  0  0  0  0  0
    2.2611    0.2480    0.8983 P   0  0  0  0  0  0  0  0  0  0  0  0
    1.3543    1.5676    2.0142 S   0  0  0  0  0  0  0  0  0  0  0  0
    3.0137   -0.8229    1.7801 O   0  0  0  0  0  0  0  0  0  0  0  0
    3.9425   -1.8060    1.2508 C   0  0  0  0  0  0  0  0  0  0  0  0
    3.3195   -3.1881    1.2596 C   0  0  0  0  0  0  0  0  0  0  0  0
    1.0970   -0.8890   -0.4860 S   0  0  0  0  0  0  0  0  0  0  0  0
   -0.0871   -1.5668    0.7087 C   0  0  0  0  0  0  0  0  0  0  0  0
   -1.4558   -0.4424    1.0988 S   0  0  0  0  0  0  0  0  0  0  0  0
   -2.0868   -0.1215   -0.9159 P   0  0  0  0  0  0  0  0  0  0  0  0
   -1.8448   -1.6549   -2.1094 S   0  0  0  0  0  0  0  0  0  0  0  0
   -1.3133    1.1632   -1.4200 O   0  0  0  0  0  0  0  0  0  0  0  0
   -1.7283    2.5349   -1.2060 C   0  0  0  0  0  0  0  0  0  0  0  0
   -1.7883    2.9100    0.2595 C   0  0  0  0  0  0  0  0  0  0  0  0
   -3.5784    0.4099   -0.7921 O   0  0  0  0  0  0  0  0  0  0  0  0
   -4.7107   -0.4787   -0.7777 C   0  0  0  0  0  0  0  0  0  0  0  0
   -4.7524   -1.3390    0.4682 C   0  0  0  0  0  0  0  0  0  0  0  0
    2.3872    2.9631   -2.4122 H   0  0  0  0  0  0  0  0  0  0  0  0
    2.6768    1.2204   -2.5587 H   0  0  0  0  0  0  0  0  0  0  0  0
    1.3540    1.8121   -1.5508 H   0  0  0  0  0  0  0  0  0  0  0  0
    2.9601    2.8351    0.0288 H   0  0  0  0  0  0  0  0  0  0  0  0
    4.3292    2.3197   -1.0025 H   0  0  0  0  0  0  0  0  0  0  0  0
    4.2432   -1.5089    0.2449 H   0  0  0  0  0  0  0  0  0  0  0  0
    4.8018   -1.7562    1.9213 H   0  0  0  0  0  0  0  0  0  0  0  0
    2.9409   -3.4208    2.2513 H   0  0  0  0  0  0  0  0  0  0  0  0
    2.5039   -3.2491    0.5430 H   0  0  0  0  0  0  0  0  0  0  0  0
    4.0777   -3.9165    0.9898 H   0  0  0  0  0  0  0  0  0  0  0  0
    0.4137   -1.7826    1.6508 H   0  0  0  0  0  0  0  0  0  0  0  0
   -0.4875   -2.4709    0.2517 H   0  0  0  0  0  0  0  0  0  0  0  0
   -0.9694    3.1115   -1.7376 H   0  0  0  0  0  0  0  0  0  0  0  0
   -2.7008    2.6726   -1.6824 H   0  0  0  0  0  0  0  0  0  0  0  0
   -2.0250    3.9658    0.3446 H   0  0  0  0  0  0  0  0  0  0  0  0
   -2.5579    2.3321    0.7673 H   0  0  0  0  0  0  0  0  0  0  0  0
   -0.8355    2.7225    0.7506 H   0  0  0  0  0  0  0  0  0  0  0  0
   -5.5676    0.1942   -0.8321 H   0  0  0  0  0  0  0  0  0  0  0  0
   -4.6682   -1.1044   -1.6745 H   0  0  0  0  0  0  0  0  0  0  0  0
   -5.6860   -1.8919    0.4896 H   0  0  0  0  0  0  0  0  0  0  0  0
   -3.9243   -2.0459    0.4593 H   0  0  0  0  0  0  0  0  0  0  0  0
   -4.6769   -0.7219    1.3601 H   0  0  0  0  0  0  0  0  0  0  0  0
  1  2  1  0  0  0  0
  2  3  1  0  0  0  0
  3  4  2  0  0  0  0
  4  5  2  0  0  0  0
  4  6  2  0  0  0  0
  6  7  1  0  0  0  0
  7  8  1  0  0  0  0
  4  9  1  0  0  0  0
  9 10  1  0  0  0  0
 10 11  1  0  0  0  0
 11 12  1  0  0  0  0
 12 13  2  0  0  0  0
 12 14  2  0  0  0  0
 14 15  1  0  0  0  0
 15 16  1  0  0  0  0
 12 17  2  0  0  0  0
 17 18  1  0  0  0  0
 18 19  1  0  0  0  0
  1 20  1  0  0  0  0
  1 21  1  0  0  0  0
  1 22  1  0  0  0  0
  2 23  1  0  0  0  0
  2 24  1  0  0  0  0
  7 25  1  0  0  0  0
  7 26  1  0  0  0  0
  8 27  1  0  0  0  0
  8 28  1  0  0  0  0
  8 29  1  0  0  0  0
 10 30  1  0  0  0  0
 10 31  1  0  0  0  0
 15 32  1  0  0  0  0
 15 33  1  0  0  0  0
 16 34  1  0  0  0  0
 16 35  1  0  0  0  0
 16 36  1  0  0  0  0
 18 37  1  0  0  0  0
 18 38  1  0  0  0  0
 19 39  1  0  0  0  0
 19 40  1  0  0  0  0
 19 41  1  0  0  0  0
M  END
