 xtb: 6.7.1 (edcfbbe)
          04092505203D

 41 40  0     0  0            999 V2000
    3.7856    1.3025   -1.8585 C   0  0  0  0  0  0  0  0  0  0  0  0
    2.4180    0.6626   -1.9780 C   0  0  0  0  0  0  0  0  0  0  0  0
    2.2295   -0.3674   -0.9940 O   0  0  0  0  0  0  0  0  0  0  0  0
    1.9669   -0.0248    0.5484 P   0  0  0  0  0  0  0  0  0  0  0  0
    0.9385    1.5998    0.8918 S   0  0  0  0  0  0  0  0  0  0  0  0
    3.3762    0.0813    1.2651 O   0  0  0  0  0  0  0  0  0  0  0  0
    4.3993   -0.9404    1.1640 C   0  0  0  0  0  0  0  0  0  0  0  0
    4.4523   -1.7667    2.4330 C   0  0  0  0  0  0  0  0  0  0  0  0
    1.2321   -1.8958    1.1631 S   0  0  0  0  0  0  0  0  0  0  0  0
   -0.3256   -1.9669    0.2434 C   0  0  0  0  0  0  0  0  0  0  0  0
   -1.6564   -0.9664    0.9798 S   0  0  0  0  0  0  0  0  0  0  0  0
   -2.1115    0.3253   -0.6576 P   0  0  0  0  0  0  0  0  0  0  0  0
   -1.0034    0.1268   -2.2554 S   0  0  0  0  0  0  0  0  0  0  0  0
   -2.0836    1.8096   -0.1476 O   0  0  0  0  0  0  0  0  0  0  0  0
   -2.7728    2.2535    1.0484 C   0  0  0  0  0  0  0  0  0  0  0  0
   -2.2246    3.6167    1.4115 C   0  0  0  0  0  0  0  0  0  0  0  0
   -3.6844    0.1198   -0.8373 O   0  0  0  0  0  0  0  0  0  0  0  0
   -4.3602   -1.1442   -0.9594 C   0  0  0  0  0  0  0  0  0  0  0  0
   -3.8784   -1.9564   -2.1438 C   0  0  0  0  0  0  0  0  0  0  0  0
    3.8744    1.8059   -0.8961 H   0  0  0  0  0  0  0  0  0  0  0  0
    4.5641    0.5485   -1.9414 H   0  0  0  0  0  0  0  0  0  0  0  0
    3.9069    2.0341   -2.6511 H   0  0  0  0  0  0  0  0  0  0  0  0
    2.2815    0.1491   -2.9310 H   0  0  0  0  0  0  0  0  0  0  0  0
    1.6259    1.4097   -1.8599 H   0  0  0  0  0  0  0  0  0  0  0  0
    4.1973   -1.5644    0.2898 H   0  0  0  0  0  0  0  0  0  0  0  0
    5.3274   -0.3850    1.0164 H   0  0  0  0  0  0  0  0  0  0  0  0
    4.5988   -1.1174    3.2917 H   0  0  0  0  0  0  0  0  0  0  0  0
    3.5259   -2.3212    2.5661 H   0  0  0  0  0  0  0  0  0  0  0  0
    5.2797   -2.4659    2.3658 H   0  0  0  0  0  0  0  0  0  0  0  0
   -0.6348   -3.0082    0.2835 H   0  0  0  0  0  0  0  0  0  0  0  0
   -0.1636   -1.6322   -0.7857 H   0  0  0  0  0  0  0  0  0  0  0  0
   -3.8414    2.2883    0.8263 H   0  0  0  0  0  0  0  0  0  0  0  0
   -2.5867    1.5274    1.8455 H   0  0  0  0  0  0  0  0  0  0  0  0
   -2.4010    4.3181    0.6013 H   0  0  0  0  0  0  0  0  0  0  0  0
   -2.7125    3.9705    2.3136 H   0  0  0  0  0  0  0  0  0  0  0  0
   -1.1528    3.5448    1.5826 H   0  0  0  0  0  0  0  0  0  0  0  0
   -4.2222   -1.6973   -0.0257 H   0  0  0  0  0  0  0  0  0  0  0  0
   -5.4085   -0.8620   -1.0708 H   0  0  0  0  0  0  0  0  0  0  0  0
   -2.8357   -2.2398   -2.0098 H   0  0  0  0  0  0  0  0  0  0  0  0
   -4.4822   -2.8535   -2.2337 H   0  0  0  0  0  0  0  0  0  0  0  0
   -3.9577   -1.3745   -3.0590 H   0  0  0  0  0  0  0  0  0  0  0  0
  1  2  1  0  0  0  0
  2  3  1  0  0  0  0
  3  4  1  0  0  0  0
  4  5  2  0  0  0  0
  4  6  2  0  0  0  0
  6  7  1  0  0  0  0
  7  8  1  0  0  0  0
  4  9  1  0  0  0  0
  9 10  1  0  0  0  0
 10 11  1  0  0  0  0
 11 12  1  0  0  0  0
 12 13  2  0  0  0  0
 12 14  2  0  0  0  0
 14 15  1  0  0  0  0
 15 16  1  0  0  0  0
 12 17  2  0  0  0  0
 17 18  1  0  0  0  0
 18 19  1  0  0  0  0
  1 20  1  0  0  0  0
  1 21  1  0  0  0  0
  1 22  1  0  0  0  0
  2 23  1  0  0  0  0
  2 24  1  0  0  0  0
  7 25  1  0  0  0  0
  7 26  1  0  0  0  0
  8 27  1  0  0  0  0
  8 28  1  0  0  0  0
  8 29  1  0  0  0  0
 10 30  1  0  0  0  0
 10 31  1  0  0  0  0
 15 32  1  0  0  0  0
 15 33  1  0  0  0  0
 16 34  1  0  0  0  0
 16 35  1  0  0  0  0
 16 36  1  0  0  0  0
 18 37  1  0  0  0  0
 18 38  1  0  0  0  0
 19 39  1  0  0  0  0
 19 40  1  0  0  0  0
 19 41  1  0  0  0  0
M  END
