 xtb: 6.7.1 (edcfbbe)
          04092505213D

 41 40  0     0  0            999 V2000
    1.8731   -0.5038   -3.1588 C   0  0  0  0  0  0  0  0  0  0  0  0
    1.8431   -1.4216   -1.9536 C   0  0  0  0  0  0  0  0  0  0  0  0
    1.1917   -0.7922   -0.8274 O   0  0  0  0  0  0  0  0  0  0  0  0
    1.9363    0.1737    0.1845 P   0  0  0  0  0  0  0  0  0  0  0  0
    2.6898    1.8704   -0.4384 S   0  0  0  0  0  0  0  0  0  0  0  0
    3.0376   -0.8347    0.7608 O   0  0  0  0  0  0  0  0  0  0  0  0
    4.1925   -0.3720    1.4760 C   0  0  0  0  0  0  0  0  0  0  0  0
    3.8334    0.1299    2.8601 C   0  0  0  0  0  0  0  0  0  0  0  0
    0.4643    0.3243    1.6872 S   0  0  0  0  0  0  0  0  0  0  0  0
   -0.1111   -1.3890    1.7651 C   0  0  0  0  0  0  0  0  0  0  0  0
   -1.2240   -1.8920    0.4011 S   0  0  0  0  0  0  0  0  0  0  0  0
   -2.0560   -0.0603   -0.2149 P   0  0  0  0  0  0  0  0  0  0  0  0
   -1.0857    1.3233   -1.2364 S   0  0  0  0  0  0  0  0  0  0  0  0
   -2.6907    0.3846    1.1662 O   0  0  0  0  0  0  0  0  0  0  0  0
   -3.2986    1.6816    1.3620 C   0  0  0  0  0  0  0  0  0  0  0  0
   -2.3257    2.6372    2.0240 C   0  0  0  0  0  0  0  0  0  0  0  0
   -3.3439   -0.5533   -1.0152 O   0  0  0  0  0  0  0  0  0  0  0  0
   -3.3330   -0.7711   -2.4353 C   0  0  0  0  0  0  0  0  0  0  0  0
   -2.4252   -1.9223   -2.8170 C   0  0  0  0  0  0  0  0  0  0  0  0
    2.5121    0.3559   -2.9663 H   0  0  0  0  0  0  0  0  0  0  0  0
    2.2532   -1.0476   -4.0175 H   0  0  0  0  0  0  0  0  0  0  0  0
    0.8720   -0.1376   -3.3758 H   0  0  0  0  0  0  0  0  0  0  0  0
    2.8506   -1.7219   -1.6569 H   0  0  0  0  0  0  0  0  0  0  0  0
    1.2335   -2.3089   -2.1400 H   0  0  0  0  0  0  0  0  0  0  0  0
    4.8466   -1.2441    1.5180 H   0  0  0  0  0  0  0  0  0  0  0  0
    4.6648    0.4239    0.8911 H   0  0  0  0  0  0  0  0  0  0  0  0
    3.3045   -0.6371    3.4197 H   0  0  0  0  0  0  0  0  0  0  0  0
    4.7408    0.4013    3.3896 H   0  0  0  0  0  0  0  0  0  0  0  0
    3.1959    1.0100    2.7785 H   0  0  0  0  0  0  0  0  0  0  0  0
   -0.6581   -1.4707    2.7015 H   0  0  0  0  0  0  0  0  0  0  0  0
    0.7389   -2.0678    1.7391 H   0  0  0  0  0  0  0  0  0  0  0  0
   -3.6356    2.0710    0.3974 H   0  0  0  0  0  0  0  0  0  0  0  0
   -4.1609    1.4834    2.0005 H   0  0  0  0  0  0  0  0  0  0  0  0
   -2.8337    3.5710    2.2419 H   0  0  0  0  0  0  0  0  0  0  0  0
   -1.9437    2.2064    2.9453 H   0  0  0  0  0  0  0  0  0  0  0  0
   -1.4846    2.8389    1.3631 H   0  0  0  0  0  0  0  0  0  0  0  0
   -4.3761   -0.9752   -2.6796 H   0  0  0  0  0  0  0  0  0  0  0  0
   -3.0083    0.1537   -2.9240 H   0  0  0  0  0  0  0  0  0  0  0  0
   -1.3948   -1.6675   -2.5676 H   0  0  0  0  0  0  0  0  0  0  0  0
   -2.7039   -2.8209   -2.2722 H   0  0  0  0  0  0  0  0  0  0  0  0
   -2.4967   -2.1046   -3.8843 H   0  0  0  0  0  0  0  0  0  0  0  0
  1  2  1  0  0  0  0
  2  3  1  0  0  0  0
  3  4  2  0  0  0  0
  4  5  2  0  0  0  0
  4  6  1  0  0  0  0
  6  7  1  0  0  0  0
  7  8  1  0  0  0  0
  4  9  1  0  0  0  0
  9 10  1  0  0  0  0
 10 11  1  0  0  0  0
 11 12  1  0  0  0  0
 12 13  2  0  0  0  0
 12 14  2  0  0  0  0
 14 15  1  0  0  0  0
 15 16  1  0  0  0  0
 12 17  2  0  0  0  0
 17 18  1  0  0  0  0
 18 19  1  0  0  0  0
  1 20  1  0  0  0  0
  1 21  1  0  0  0  0
  1 22  1  0  0  0  0
  2 23  1  0  0  0  0
  2 24  1  0  0  0  0
  7 25  1  0  0  0  0
  7 26  1  0  0  0  0
  8 27  1  0  0  0  0
  8 28  1  0  0  0  0
  8 29  1  0  0  0  0
 10 30  1  0  0  0  0
 10 31  1  0  0  0  0
 15 32  1  0  0  0  0
 15 33  1  0  0  0  0
 16 34  1  0  0  0  0
 16 35  1  0  0  0  0
 16 36  1  0  0  0  0
 18 37  1  0  0  0  0
 18 38  1  0  0  0  0
 19 39  1  0  0  0  0
 19 40  1  0  0  0  0
 19 41  1  0  0  0  0
M  END
