 xtb: 6.7.1 (edcfbbe)
          04092505203D

 41 40  0     0  0            999 V2000
    4.4870   -1.8739   -1.8042 C   0  0  0  0  0  0  0  0  0  0  0  0
    4.5053   -0.6224   -0.9497 C   0  0  0  0  0  0  0  0  0  0  0  0
    3.4164    0.2581   -1.3357 O   0  0  0  0  0  0  0  0  0  0  0  0
    2.1562    0.5281   -0.4312 P   0  0  0  0  0  0  0  0  0  0  0  0
    0.9453    1.7605   -1.3463 S   0  0  0  0  0  0  0  0  0  0  0  0
    2.8328    1.0295    0.9121 O   0  0  0  0  0  0  0  0  0  0  0  0
    2.1071    1.5411    2.0462 C   0  0  0  0  0  0  0  0  0  0  0  0
    3.1037    2.2378    2.9489 C   0  0  0  0  0  0  0  0  0  0  0  0
    1.3785   -1.3882    0.0809 S   0  0  0  0  0  0  0  0  0  0  0  0
    0.1815   -1.5589   -1.2836 C   0  0  0  0  0  0  0  0  0  0  0  0
   -1.4611   -2.0749   -0.7215 S   0  0  0  0  0  0  0  0  0  0  0  0
   -2.1780   -0.2673    0.0886 P   0  0  0  0  0  0  0  0  0  0  0  0
   -1.1634    0.6617    1.4930 S   0  0  0  0  0  0  0  0  0  0  0  0
   -3.6579   -0.6494    0.5210 O   0  0  0  0  0  0  0  0  0  0  0  0
   -3.9779   -1.1208    1.8412 C   0  0  0  0  0  0  0  0  0  0  0  0
   -3.3852   -2.4881    2.1139 C   0  0  0  0  0  0  0  0  0  0  0  0
   -2.4056    0.5234   -1.2634 O   0  0  0  0  0  0  0  0  0  0  0  0
   -2.6251    1.9462   -1.3182 C   0  0  0  0  0  0  0  0  0  0  0  0
   -3.9063    2.3512   -0.6218 C   0  0  0  0  0  0  0  0  0  0  0  0
    5.3743   -2.4609   -1.5899 H   0  0  0  0  0  0  0  0  0  0  0  0
    3.6058   -2.4717   -1.5854 H   0  0  0  0  0  0  0  0  0  0  0  0
    4.4806   -1.6045   -2.8566 H   0  0  0  0  0  0  0  0  0  0  0  0
    5.4100   -0.0368   -1.1184 H   0  0  0  0  0  0  0  0  0  0  0  0
    4.4145   -0.8617    0.1115 H   0  0  0  0  0  0  0  0  0  0  0  0
    1.3328    2.2282    1.6912 H   0  0  0  0  0  0  0  0  0  0  0  0
    1.6176    0.7053    2.5530 H   0  0  0  0  0  0  0  0  0  0  0  0
    3.8647    1.5347    3.2744 H   0  0  0  0  0  0  0  0  0  0  0  0
    3.5810    3.0551    2.4156 H   0  0  0  0  0  0  0  0  0  0  0  0
    2.5804    2.6297    3.8146 H   0  0  0  0  0  0  0  0  0  0  0  0
    0.5230   -2.3467   -1.9495 H   0  0  0  0  0  0  0  0  0  0  0  0
    0.1073   -0.5993   -1.8017 H   0  0  0  0  0  0  0  0  0  0  0  0
   -3.6084   -0.3903    2.5684 H   0  0  0  0  0  0  0  0  0  0  0  0
   -5.0683   -1.1417    1.8545 H   0  0  0  0  0  0  0  0  0  0  0  0
   -3.7406   -2.8504    3.0732 H   0  0  0  0  0  0  0  0  0  0  0  0
   -3.6717   -3.1870    1.3321 H   0  0  0  0  0  0  0  0  0  0  0  0
   -2.2978   -2.4219    2.1417 H   0  0  0  0  0  0  0  0  0  0  0  0
   -1.7583    2.4477   -0.8755 H   0  0  0  0  0  0  0  0  0  0  0  0
   -2.6545    2.1603   -2.3874 H   0  0  0  0  0  0  0  0  0  0  0  0
   -3.8214    2.1656    0.4485 H   0  0  0  0  0  0  0  0  0  0  0  0
   -4.0815    3.4102   -0.7831 H   0  0  0  0  0  0  0  0  0  0  0  0
   -4.7429    1.7789   -1.0142 H   0  0  0  0  0  0  0  0  0  0  0  0
  1  2  1  0  0  0  0
  2  3  1  0  0  0  0
  3  4  2  0  0  0  0
  4  5  2  0  0  0  0
  4  6  2  0  0  0  0
  6  7  1  0  0  0  0
  7  8  1  0  0  0  0
  4  9  1  0  0  0  0
  9 10  1  0  0  0  0
 10 11  1  0  0  0  0
 11 12  1  0  0  0  0
 12 13  2  0  0  0  0
 12 14  2  0  0  0  0
 14 15  1  0  0  0  0
 15 16  1  0  0  0  0
 12 17  2  0  0  0  0
 17 18  1  0  0  0  0
 18 19  1  0  0  0  0
  1 20  1  0  0  0  0
  1 21  1  0  0  0  0
  1 22  1  0  0  0  0
  2 23  1  0  0  0  0
  2 24  1  0  0  0  0
  7 25  1  0  0  0  0
  7 26  1  0  0  0  0
  8 27  1  0  0  0  0
  8 28  1  0  0  0  0
  8 29  1  0  0  0  0
 10 30  1  0  0  0  0
 10 31  1  0  0  0  0
 15 32  1  0  0  0  0
 15 33  1  0  0  0  0
 16 34  1  0  0  0  0
 16 35  1  0  0  0  0
 16 36  1  0  0  0  0
 18 37  1  0  0  0  0
 18 38  1  0  0  0  0
 19 39  1  0  0  0  0
 19 40  1  0  0  0  0
 19 41  1  0  0  0  0
M  END
