 xtb: 6.7.1 (edcfbbe)
          04092505203D

 41 40  0     0  0            999 V2000
    3.7776   -0.6742   -2.5597 C   0  0  0  0  0  0  0  0  0  0  0  0
    4.1825    0.5278   -1.7297 C   0  0  0  0  0  0  0  0  0  0  0  0
    3.6943    0.4558   -0.3817 O   0  0  0  0  0  0  0  0  0  0  0  0
    2.1460    0.5246   -0.0017 P   0  0  0  0  0  0  0  0  0  0  0  0
    1.1479    1.7980   -1.1029 S   0  0  0  0  0  0  0  0  0  0  0  0
    2.2310    0.9549    1.5073 O   0  0  0  0  0  0  0  0  0  0  0  0
    2.4958    0.0994    2.6423 C   0  0  0  0  0  0  0  0  0  0  0  0
    3.7706   -0.6999    2.4861 C   0  0  0  0  0  0  0  0  0  0  0  0
    1.4787   -1.4983   -0.0508 S   0  0  0  0  0  0  0  0  0  0  0  0
    0.1712   -1.3880   -1.3122 C   0  0  0  0  0  0  0  0  0  0  0  0
   -1.4527   -1.9326   -0.7239 S   0  0  0  0  0  0  0  0  0  0  0  0
   -2.0493   -0.2325    0.3552 P   0  0  0  0  0  0  0  0  0  0  0  0
   -0.9377    0.4587    1.8121 S   0  0  0  0  0  0  0  0  0  0  0  0
   -3.4608   -0.6460    0.9431 O   0  0  0  0  0  0  0  0  0  0  0  0
   -4.4182   -1.5351    0.3202 C   0  0  0  0  0  0  0  0  0  0  0  0
   -4.9839   -0.9724   -0.9666 C   0  0  0  0  0  0  0  0  0  0  0  0
   -2.2601    0.7920   -0.8553 O   0  0  0  0  0  0  0  0  0  0  0  0
   -2.2972    2.2127   -0.6574 C   0  0  0  0  0  0  0  0  0  0  0  0
   -3.6139    2.6512   -0.0516 C   0  0  0  0  0  0  0  0  0  0  0  0
    4.2958   -0.6401   -3.5127 H   0  0  0  0  0  0  0  0  0  0  0  0
    4.0333   -1.5954   -2.0426 H   0  0  0  0  0  0  0  0  0  0  0  0
    2.7045   -0.6534   -2.7429 H   0  0  0  0  0  0  0  0  0  0  0  0
    3.8094    1.4514   -2.1839 H   0  0  0  0  0  0  0  0  0  0  0  0
    5.2652    0.5865   -1.6090 H   0  0  0  0  0  0  0  0  0  0  0  0
    2.5544    0.8044    3.4727 H   0  0  0  0  0  0  0  0  0  0  0  0
    1.6277   -0.5507    2.7840 H   0  0  0  0  0  0  0  0  0  0  0  0
    3.6746   -1.4049    1.6616 H   0  0  0  0  0  0  0  0  0  0  0  0
    4.6074   -0.0354    2.2875 H   0  0  0  0  0  0  0  0  0  0  0  0
    3.9552   -1.2521    3.4023 H   0  0  0  0  0  0  0  0  0  0  0  0
    0.4251   -2.0728   -2.1174 H   0  0  0  0  0  0  0  0  0  0  0  0
    0.1072   -0.3542   -1.6647 H   0  0  0  0  0  0  0  0  0  0  0  0
   -3.9302   -2.4970    0.1449 H   0  0  0  0  0  0  0  0  0  0  0  0
   -5.1889   -1.6463    1.0847 H   0  0  0  0  0  0  0  0  0  0  0  0
   -4.1923   -0.8391   -1.7007 H   0  0  0  0  0  0  0  0  0  0  0  0
   -5.7188   -1.6670   -1.3614 H   0  0  0  0  0  0  0  0  0  0  0  0
   -5.4622   -0.0141   -0.7819 H   0  0  0  0  0  0  0  0  0  0  0  0
   -1.4584    2.5020   -0.0151 H   0  0  0  0  0  0  0  0  0  0  0  0
   -2.1399    2.6279   -1.6540 H   0  0  0  0  0  0  0  0  0  0  0  0
   -3.6112    3.7299    0.0692 H   0  0  0  0  0  0  0  0  0  0  0  0
   -4.4399    2.3625   -0.6958 H   0  0  0  0  0  0  0  0  0  0  0  0
   -3.7403    2.1843    0.9252 H   0  0  0  0  0  0  0  0  0  0  0  0
  1  2  1  0  0  0  0
  2  3  1  0  0  0  0
  3  4  2  0  0  0  0
  4  5  2  0  0  0  0
  4  6  2  0  0  0  0
  6  7  1  0  0  0  0
  7  8  1  0  0  0  0
  4  9  1  0  0  0  0
  9 10  1  0  0  0  0
 10 11  1  0  0  0  0
 11 12  1  0  0  0  0
 12 13  2  0  0  0  0
 12 14  2  0  0  0  0
 14 15  1  0  0  0  0
 15 16  1  0  0  0  0
 12 17  1  0  0  0  0
 17 18  1  0  0  0  0
 18 19  1  0  0  0  0
  1 20  1  0  0  0  0
  1 21  1  0  0  0  0
  1 22  1  0  0  0  0
  2 23  1  0  0  0  0
  2 24  1  0  0  0  0
  7 25  1  0  0  0  0
  7 26  1  0  0  0  0
  8 27  1  0  0  0  0
  8 28  1  0  0  0  0
  8 29  1  0  0  0  0
 10 30  1  0  0  0  0
 10 31  1  0  0  0  0
 15 32  1  0  0  0  0
 15 33  1  0  0  0  0
 16 34  1  0  0  0  0
 16 35  1  0  0  0  0
 16 36  1  0  0  0  0
 18 37  1  0  0  0  0
 18 38  1  0  0  0  0
 19 39  1  0  0  0  0
 19 40  1  0  0  0  0
 19 41  1  0  0  0  0
M  END
