 xtb: 6.7.1 (edcfbbe)
          04092507313D

 38 37  0     0  0            999 V2000
    3.8237   -2.8773    0.6830 C   0  0  0  0  0  0  0  0  0  0  0  0
    2.3188   -2.8052    0.4832 C   0  0  0  0  0  0  0  0  0  0  0  0
    1.9879   -2.0100   -0.6714 O   0  0  0  0  0  0  0  0  0  0  0  0
    1.9587   -0.7022   -0.5558 C   0  0  0  0  0  0  0  0  0  0  0  0
    2.1592   -0.0814    0.4689 O   0  0  0  0  0  0  0  0  0  0  0  0
    1.6436   -0.0209   -1.8756 C   0  0  0  0  0  0  0  0  0  0  0  0
    0.4429    0.9174   -1.7178 C   0  0  0  0  0  0  0  0  0  0  0  0
    0.4102    1.6233   -2.5505 H   0  0  0  0  0  0  0  0  0  0  0  0
    0.5219    1.6847   -0.4123 C   0  0  0  0  0  0  0  0  0  0  0  0
   -0.2859    1.5251    0.4875 O   0  0  0  0  0  0  0  0  0  0  0  0
    1.4966    2.5405   -0.3991 O   0  0  0  0  0  0  0  0  0  0  0  0
    1.7417    3.2730    0.8221 C   0  0  0  0  0  0  0  0  0  0  0  0
    2.7709    4.3434    0.5225 C   0  0  0  0  0  0  0  0  0  0  0  0
   -1.1489    0.0256   -1.7808 S   0  0  0  0  0  0  0  0  0  0  0  0
   -1.7829   -0.3294    0.1950 P   0  0  0  0  0  0  0  0  0  0  0  0
   -0.7239   -1.1361    1.6501 S   0  0  0  0  0  0  0  0  0  0  0  0
   -2.7574    0.8895    0.5253 O   0  0  0  0  0  0  0  0  0  0  0  0
   -3.6222    0.8313    1.6685 C   0  0  0  0  0  0  0  0  0  0  0  0
   -2.9389   -1.3928   -0.2117 O   0  0  0  0  0  0  0  0  0  0  0  0
   -2.6657   -2.7730   -0.4485 C   0  0  0  0  0  0  0  0  0  0  0  0
    4.2187   -1.8895    0.9093 H   0  0  0  0  0  0  0  0  0  0  0  0
    4.0398   -3.5402    1.5140 H   0  0  0  0  0  0  0  0  0  0  0  0
    4.3023   -3.2572   -0.2155 H   0  0  0  0  0  0  0  0  0  0  0  0
    1.8226   -2.3736    1.3581 H   0  0  0  0  0  0  0  0  0  0  0  0
    1.8969   -3.7855    0.2622 H   0  0  0  0  0  0  0  0  0  0  0  0
    1.4402   -0.7681   -2.6407 H   0  0  0  0  0  0  0  0  0  0  0  0
    2.5160    0.5740   -2.1535 H   0  0  0  0  0  0  0  0  0  0  0  0
    0.7932    3.6941    1.1690 H   0  0  0  0  0  0  0  0  0  0  0  0
    2.0972    2.5531    1.5660 H   0  0  0  0  0  0  0  0  0  0  0  0
    2.9776    4.9008    1.4299 H   0  0  0  0  0  0  0  0  0  0  0  0
    3.6887    3.8859    0.1670 H   0  0  0  0  0  0  0  0  0  0  0  0
    2.3953    5.0217   -0.2376 H   0  0  0  0  0  0  0  0  0  0  0  0
   -4.0199    1.8368    1.7802 H   0  0  0  0  0  0  0  0  0  0  0  0
   -3.0554    0.5430    2.5559 H   0  0  0  0  0  0  0  0  0  0  0  0
   -4.4222    0.1130    1.4906 H   0  0  0  0  0  0  0  0  0  0  0  0
   -1.9849   -3.1529    0.3166 H   0  0  0  0  0  0  0  0  0  0  0  0
   -2.2248   -2.9006   -1.4370 H   0  0  0  0  0  0  0  0  0  0  0  0
   -3.6255   -3.2801   -0.3887 H   0  0  0  0  0  0  0  0  0  0  0  0
  1  2  1  0  0  0  0
  2  3  1  0  0  0  0
  3  4  4  0  0  0  0
  4  5  2  0  0  0  0
  4  6  1  0  0  0  0
  6  7  1  0  0  0  0
  7  8  1  0  0  0  0
  7  9  1  0  0  0  0
  9 10  2  0  0  0  0
  9 11  4  0  0  0  0
 11 12  1  0  0  0  0
 12 13  1  0  0  0  0
  7 14  1  0  0  0  0
 14 15  1  0  0  0  0
 15 16  2  0  0  0  0
 15 17  1  0  0  0  0
 17 18  1  0  0  0  0
 15 19  1  0  0  0  0
 19 20  1  0  0  0  0
  1 21  1  0  0  0  0
  1 22  1  0  0  0  0
  1 23  1  0  0  0  0
  2 24  1  0  0  0  0
  2 25  1  0  0  0  0
  6 26  1  0  0  0  0
  6 27  1  0  0  0  0
 12 28  1  0  0  0  0
 12 29  1  0  0  0  0
 13 30  1  0  0  0  0
 13 31  1  0  0  0  0
 13 32  1  0  0  0  0
 18 33  1  0  0  0  0
 18 34  1  0  0  0  0
 18 35  1  0  0  0  0
 20 36  1  0  0  0  0
 20 37  1  0  0  0  0
 20 38  1  0  0  0  0
M  END
