41
 xtb: 6.7.1 (edcfbbe)
C            2.27990960712902        2.09236286247540       -1.22334108109596
C            2.39557989763023        2.22982960242561        0.27454777077370
O            1.71935503192851        1.15153560919279        1.02608928971429
P            2.14319923114812       -0.39229121948446        0.98425388109589
S            1.72304977903759       -1.30973608762941        2.64745510665149
O            3.68061316602026       -0.29008920150693        0.53093654957824
C            4.54208412236484       -1.48463609476106        0.50073080006300
C            5.59657619985464       -1.35771052303625        1.56952585081725
S            1.26800559034732       -1.26944270182869       -0.75187723959060
C           -0.21829333421000       -2.08242742371543       -0.05779087364919
S           -1.53121111302959       -0.99481105374210        0.62030635196987
P           -2.25202201577996       -0.04895636629725       -1.14406043952262
S           -2.14508033847218       -1.09664499999694       -2.77690650004922
O           -1.49233611463125        1.35381577227748       -1.29390677358337
C           -1.53448695121208        2.37396533962110       -0.22611497475690
C           -2.40265399641338        3.52520459654867       -0.66532862713011
O           -3.70187747591239        0.44121409348903       -0.64294064093575
C           -4.80493903052170       -0.51170463889678       -0.45346391307455
C           -6.06749767002757        0.29493316598100       -0.29874177600211
H            2.68991822576298        3.00292720856415       -1.67327992099701
H            2.85379821787146        1.24406704441711       -1.60606453642345
H            1.23801496479291        1.99286403170256       -1.53908054819590
H            1.88458744952937        3.12704056425511        0.62925634743481
H            3.43729558781668        2.26180480220716        0.60280528104315
H            3.92885796829575       -2.38064080689839        0.63841708835507
H            4.97258462741566       -1.50273850436338       -0.50329337944991
H            5.14309191636734       -1.34294870809001        2.56471055686088
H            6.27109542180227       -2.21779529461818        1.50772526986363
H            6.18508783518248       -0.44662627655202        1.43067101429586
H            0.07202709641821       -2.73404688676688        0.77080849393929
H           -0.63046856393717       -2.68290650514353       -0.87398113768062
H           -1.89404252526193        1.92181364403265        0.70284915364318
H           -0.49568000726013        2.67960294158000       -0.08564757708045
H           -3.43981420188877        3.20925300914731       -0.80590383065804
H           -2.37784074426722        4.29937707595403        0.10842590769531
H           -2.03058888657675        3.95945701095925       -1.59753176848440
H           -4.84719729736687       -1.16970130729848       -1.32715215120635
H           -4.59059611276938       -1.10734354980365        0.43923170998693
H           -6.27091348343235        0.88003764247434       -1.19988768458030
H           -6.90524189893005       -0.38917545558040       -0.13292825947692
H           -5.99863775330181        0.96972669655194        0.55916296161531
