 xtb: 6.7.1 (edcfbbe)
          04092505213D

 41 40  0     0  0            999 V2000
    3.7462   -2.2228    1.3432 C   0  0  0  0  0  0  0  0  0  0  0  0
    2.4337   -2.1350    0.5919 C   0  0  0  0  0  0  0  0  0  0  0  0
    1.9340   -0.7846    0.5964 O   0  0  0  0  0  0  0  0  0  0  0  0
    2.4853    0.3282   -0.4099 P   0  0  0  0  0  0  0  0  0  0  0  0
    3.3408   -0.3960   -2.0109 S   0  0  0  0  0  0  0  0  0  0  0  0
    3.4687    1.2721    0.3941 O   0  0  0  0  0  0  0  0  0  0  0  0
    3.0874    2.2645    1.3756 C   0  0  0  0  0  0  0  0  0  0  0  0
    2.3324    1.6695    2.5455 C   0  0  0  0  0  0  0  0  0  0  0  0
    0.7544    1.5092   -0.7131 S   0  0  0  0  0  0  0  0  0  0  0  0
   -0.0484    0.3520   -1.8509 C   0  0  0  0  0  0  0  0  0  0  0  0
   -0.8605   -1.0147   -0.9971 S   0  0  0  0  0  0  0  0  0  0  0  0
   -2.3588    0.1777   -0.0390 P   0  0  0  0  0  0  0  0  0  0  0  0
   -2.9938    1.6627   -1.1490 S   0  0  0  0  0  0  0  0  0  0  0  0
   -1.8050    0.6719    1.3482 O   0  0  0  0  0  0  0  0  0  0  0  0
   -1.7817   -0.0946    2.5800 C   0  0  0  0  0  0  0  0  0  0  0  0
   -0.8970   -1.3187    2.4830 C   0  0  0  0  0  0  0  0  0  0  0  0
   -3.4564   -0.8876    0.3809 O   0  0  0  0  0  0  0  0  0  0  0  0
   -4.3149   -1.4965   -0.6065 C   0  0  0  0  0  0  0  0  0  0  0  0
   -5.4909   -2.1166    0.1202 C   0  0  0  0  0  0  0  0  0  0  0  0
    4.0973   -3.2496    1.3384 H   0  0  0  0  0  0  0  0  0  0  0  0
    4.4882   -1.5915    0.8543 H   0  0  0  0  0  0  0  0  0  0  0  0
    3.6202   -1.8900    2.3698 H   0  0  0  0  0  0  0  0  0  0  0  0
    1.6468   -2.7215    1.0677 H   0  0  0  0  0  0  0  0  0  0  0  0
    2.5596   -2.4604   -0.4454 H   0  0  0  0  0  0  0  0  0  0  0  0
    4.0439    2.6890    1.6849 H   0  0  0  0  0  0  0  0  0  0  0  0
    2.4886    3.0292    0.8736 H   0  0  0  0  0  0  0  0  0  0  0  0
    2.9079    0.8658    2.9969 H   0  0  0  0  0  0  0  0  0  0  0  0
    2.1586    2.4454    3.2847 H   0  0  0  0  0  0  0  0  0  0  0  0
    1.3728    1.2797    2.2116 H   0  0  0  0  0  0  0  0  0  0  0  0
    0.6979   -0.0763   -2.5214 H   0  0  0  0  0  0  0  0  0  0  0  0
   -0.7966    0.9251   -2.3993 H   0  0  0  0  0  0  0  0  0  0  0  0
   -1.4009    0.6230    3.3088 H   0  0  0  0  0  0  0  0  0  0  0  0
   -2.8078   -0.3698    2.8289 H   0  0  0  0  0  0  0  0  0  0  0  0
   -0.8416   -1.7939    3.4575 H   0  0  0  0  0  0  0  0  0  0  0  0
   -1.3081   -2.0248    1.7639 H   0  0  0  0  0  0  0  0  0  0  0  0
    0.1029   -1.0364    2.1641 H   0  0  0  0  0  0  0  0  0  0  0  0
   -4.6391   -0.7231   -1.3105 H   0  0  0  0  0  0  0  0  0  0  0  0
   -3.7331   -2.2493   -1.1448 H   0  0  0  0  0  0  0  0  0  0  0  0
   -5.1412   -2.8605    0.8298 H   0  0  0  0  0  0  0  0  0  0  0  0
   -6.0460   -1.3507    0.6547 H   0  0  0  0  0  0  0  0  0  0  0  0
   -6.1448   -2.5910   -0.6039 H   0  0  0  0  0  0  0  0  0  0  0  0
  1  2  1  0  0  0  0
  2  3  1  0  0  0  0
  3  4  1  0  0  0  0
  4  5  2  0  0  0  0
  4  6  2  0  0  0  0
  6  7  1  0  0  0  0
  7  8  1  0  0  0  0
  4  9  1  0  0  0  0
  9 10  1  0  0  0  0
 10 11  1  0  0  0  0
 11 12  1  0  0  0  0
 12 13  2  0  0  0  0
 12 14  2  0  0  0  0
 14 15  1  0  0  0  0
 15 16  1  0  0  0  0
 12 17  2  0  0  0  0
 17 18  1  0  0  0  0
 18 19  1  0  0  0  0
  1 20  1  0  0  0  0
  1 21  1  0  0  0  0
  1 22  1  0  0  0  0
  2 23  1  0  0  0  0
  2 24  1  0  0  0  0
  7 25  1  0  0  0  0
  7 26  1  0  0  0  0
  8 27  1  0  0  0  0
  8 28  1  0  0  0  0
  8 29  1  0  0  0  0
 10 30  1  0  0  0  0
 10 31  1  0  0  0  0
 15 32  1  0  0  0  0
 15 33  1  0  0  0  0
 16 34  1  0  0  0  0
 16 35  1  0  0  0  0
 16 36  1  0  0  0  0
 18 37  1  0  0  0  0
 18 38  1  0  0  0  0
 19 39  1  0  0  0  0
 19 40  1  0  0  0  0
 19 41  1  0  0  0  0
M  END
