 xtb: 6.7.1 (edcfbbe)
          04092505213D

 41 40  0     0  0            999 V2000
    5.3718   -2.2463   -0.8620 C   0  0  0  0  0  0  0  0  0  0  0  0
    4.2382   -1.3504   -1.3179 C   0  0  0  0  0  0  0  0  0  0  0  0
    3.4780   -0.9733   -0.1502 O   0  0  0  0  0  0  0  0  0  0  0  0
    2.4635    0.2479   -0.1821 P   0  0  0  0  0  0  0  0  0  0  0  0
    3.1731    1.9541   -0.8182 S   0  0  0  0  0  0  0  0  0  0  0  0
    1.9829    0.3239    1.3106 O   0  0  0  0  0  0  0  0  0  0  0  0
    1.4637   -0.8169    2.0439 C   0  0  0  0  0  0  0  0  0  0  0  0
    0.5484   -0.2875    3.1272 C   0  0  0  0  0  0  0  0  0  0  0  0
    0.8439   -0.5347   -1.3373 S   0  0  0  0  0  0  0  0  0  0  0  0
   -0.0020    1.0457   -1.5595 C   0  0  0  0  0  0  0  0  0  0  0  0
   -0.8700    1.5980   -0.0719 S   0  0  0  0  0  0  0  0  0  0  0  0
   -2.4275    0.1630   -0.1882 P   0  0  0  0  0  0  0  0  0  0  0  0
   -3.1100   -0.2167   -1.9792 S   0  0  0  0  0  0  0  0  0  0  0  0
   -3.5746    0.6954    0.7639 O   0  0  0  0  0  0  0  0  0  0  0  0
   -3.4533    0.8378    2.2006 C   0  0  0  0  0  0  0  0  0  0  0  0
   -2.9973    2.2320    2.5805 C   0  0  0  0  0  0  0  0  0  0  0  0
   -1.7325   -1.0632    0.5690 O   0  0  0  0  0  0  0  0  0  0  0  0
   -2.0524   -2.4307    0.2483 C   0  0  0  0  0  0  0  0  0  0  0  0
   -3.4234   -2.8120    0.7681 C   0  0  0  0  0  0  0  0  0  0  0  0
    4.9733   -3.1250   -0.3638 H   0  0  0  0  0  0  0  0  0  0  0  0
    5.9511   -2.5542   -1.7262 H   0  0  0  0  0  0  0  0  0  0  0  0
    6.0162   -1.7100   -0.1712 H   0  0  0  0  0  0  0  0  0  0  0  0
    3.5672   -1.8702   -2.0069 H   0  0  0  0  0  0  0  0  0  0  0  0
    4.6118   -0.4406   -1.7990 H   0  0  0  0  0  0  0  0  0  0  0  0
    0.9270   -1.4658    1.3455 H   0  0  0  0  0  0  0  0  0  0  0  0
    2.3169   -1.3563    2.4582 H   0  0  0  0  0  0  0  0  0  0  0  0
   -0.2854    0.2456    2.6777 H   0  0  0  0  0  0  0  0  0  0  0  0
    0.1736   -1.1177    3.7170 H   0  0  0  0  0  0  0  0  0  0  0  0
    1.0918    0.3986    3.7702 H   0  0  0  0  0  0  0  0  0  0  0  0
   -0.7226    0.9131   -2.3671 H   0  0  0  0  0  0  0  0  0  0  0  0
    0.7347    1.8131   -1.8015 H   0  0  0  0  0  0  0  0  0  0  0  0
   -4.4612    0.6398    2.5693 H   0  0  0  0  0  0  0  0  0  0  0  0
   -2.7644    0.0776    2.5756 H   0  0  0  0  0  0  0  0  0  0  0  0
   -2.9951    2.3218    3.6623 H   0  0  0  0  0  0  0  0  0  0  0  0
   -1.9944    2.4272    2.2050 H   0  0  0  0  0  0  0  0  0  0  0  0
   -3.6720    2.9728    2.1605 H   0  0  0  0  0  0  0  0  0  0  0  0
   -2.0011   -2.5555   -0.8376 H   0  0  0  0  0  0  0  0  0  0  0  0
   -1.2609   -3.0113    0.7239 H   0  0  0  0  0  0  0  0  0  0  0  0
   -3.4770   -2.6724    1.8445 H   0  0  0  0  0  0  0  0  0  0  0  0
   -4.1812   -2.1908    0.2907 H   0  0  0  0  0  0  0  0  0  0  0  0
   -3.6220   -3.8522    0.5303 H   0  0  0  0  0  0  0  0  0  0  0  0
  1  2  1  0  0  0  0
  2  3  1  0  0  0  0
  3  4  2  0  0  0  0
  4  5  2  0  0  0  0
  4  6  2  0  0  0  0
  6  7  1  0  0  0  0
  7  8  1  0  0  0  0
  4  9  1  0  0  0  0
  9 10  1  0  0  0  0
 10 11  1  0  0  0  0
 11 12  1  0  0  0  0
 12 13  2  0  0  0  0
 12 14  2  0  0  0  0
 14 15  1  0  0  0  0
 15 16  1  0  0  0  0
 12 17  1  0  0  0  0
 17 18  1  0  0  0  0
 18 19  1  0  0  0  0
  1 20  1  0  0  0  0
  1 21  1  0  0  0  0
  1 22  1  0  0  0  0
  2 23  1  0  0  0  0
  2 24  1  0  0  0  0
  7 25  1  0  0  0  0
  7 26  1  0  0  0  0
  8 27  1  0  0  0  0
  8 28  1  0  0  0  0
  8 29  1  0  0  0  0
 10 30  1  0  0  0  0
 10 31  1  0  0  0  0
 15 32  1  0  0  0  0
 15 33  1  0  0  0  0
 16 34  1  0  0  0  0
 16 35  1  0  0  0  0
 16 36  1  0  0  0  0
 18 37  1  0  0  0  0
 18 38  1  0  0  0  0
 19 39  1  0  0  0  0
 19 40  1  0  0  0  0
 19 41  1  0  0  0  0
M  END
