 xtb: 6.7.1 (edcfbbe)
          04092505213D

 41 40  0     0  0            999 V2000
    5.4347    0.9479   -1.7183 C   0  0  0  0  0  0  0  0  0  0  0  0
    4.3166    1.2699   -0.7475 C   0  0  0  0  0  0  0  0  0  0  0  0
    3.2215    0.3688   -1.0131 O   0  0  0  0  0  0  0  0  0  0  0  0
    2.1512   -0.0212    0.0946 P   0  0  0  0  0  0  0  0  0  0  0  0
    2.9216   -0.4632    1.8460 S   0  0  0  0  0  0  0  0  0  0  0  0
    1.3398   -1.1647   -0.6273 O   0  0  0  0  0  0  0  0  0  0  0  0
    1.7559   -2.5501   -0.6096 C   0  0  0  0  0  0  0  0  0  0  0  0
    0.5783   -3.4079   -0.1952 C   0  0  0  0  0  0  0  0  0  0  0  0
    0.7726    1.5618    0.0443 S   0  0  0  0  0  0  0  0  0  0  0  0
   -0.0416    1.1971    1.6235 C   0  0  0  0  0  0  0  0  0  0  0  0
   -1.0301   -0.3254    1.5986 S   0  0  0  0  0  0  0  0  0  0  0  0
   -2.2579    0.0707   -0.0869 P   0  0  0  0  0  0  0  0  0  0  0  0
   -1.6724   -0.4637   -1.8841 S   0  0  0  0  0  0  0  0  0  0  0  0
   -2.5397    1.6070    0.1483 O   0  0  0  0  0  0  0  0  0  0  0  0
   -2.8534    2.5365   -0.9138 C   0  0  0  0  0  0  0  0  0  0  0  0
   -2.0915    3.8237   -0.6717 C   0  0  0  0  0  0  0  0  0  0  0  0
   -3.6637   -0.5646    0.3104 O   0  0  0  0  0  0  0  0  0  0  0  0
   -4.0097   -1.9267    0.0184 C   0  0  0  0  0  0  0  0  0  0  0  0
   -3.3367   -2.8851    0.9799 C   0  0  0  0  0  0  0  0  0  0  0  0
    5.0755    1.0403   -2.7393 H   0  0  0  0  0  0  0  0  0  0  0  0
    6.2538    1.6414   -1.5597 H   0  0  0  0  0  0  0  0  0  0  0  0
    5.7880   -0.0673   -1.5601 H   0  0  0  0  0  0  0  0  0  0  0  0
    3.9518    2.2911   -0.8826 H   0  0  0  0  0  0  0  0  0  0  0  0
    4.6357    1.1344    0.2915 H   0  0  0  0  0  0  0  0  0  0  0  0
    2.0867   -2.7848   -1.6229 H   0  0  0  0  0  0  0  0  0  0  0  0
    2.5925   -2.6618    0.0881 H   0  0  0  0  0  0  0  0  0  0  0  0
    0.2907   -3.1770    0.8286 H   0  0  0  0  0  0  0  0  0  0  0  0
   -0.2635   -3.2124   -0.8555 H   0  0  0  0  0  0  0  0  0  0  0  0
    0.8544   -4.4549   -0.2634 H   0  0  0  0  0  0  0  0  0  0  0  0
   -0.6805    2.0452    1.8540 H   0  0  0  0  0  0  0  0  0  0  0  0
    0.7165    1.0455    2.3932 H   0  0  0  0  0  0  0  0  0  0  0  0
   -2.5777    2.0836   -1.8724 H   0  0  0  0  0  0  0  0  0  0  0  0
   -3.9330    2.6973   -0.8868 H   0  0  0  0  0  0  0  0  0  0  0  0
   -1.0202    3.6337   -0.6887 H   0  0  0  0  0  0  0  0  0  0  0  0
   -2.3410    4.5344   -1.4526 H   0  0  0  0  0  0  0  0  0  0  0  0
   -2.3619    4.2418    0.2936 H   0  0  0  0  0  0  0  0  0  0  0  0
   -5.0960   -1.9547    0.1140 H   0  0  0  0  0  0  0  0  0  0  0  0
   -3.7225   -2.1432   -1.0166 H   0  0  0  0  0  0  0  0  0  0  0  0
   -3.5979   -2.6361    2.0048 H   0  0  0  0  0  0  0  0  0  0  0  0
   -3.6511   -3.9004    0.7614 H   0  0  0  0  0  0  0  0  0  0  0  0
   -2.2546   -2.8164    0.8720 H   0  0  0  0  0  0  0  0  0  0  0  0
  1  2  1  0  0  0  0
  2  3  1  0  0  0  0
  3  4  2  0  0  0  0
  4  5  2  0  0  0  0
  4  6  2  0  0  0  0
  6  7  1  0  0  0  0
  7  8  1  0  0  0  0
  4  9  1  0  0  0  0
  9 10  1  0  0  0  0
 10 11  1  0  0  0  0
 11 12  1  0  0  0  0
 12 13  2  0  0  0  0
 12 14  2  0  0  0  0
 14 15  1  0  0  0  0
 15 16  1  0  0  0  0
 12 17  2  0  0  0  0
 17 18  1  0  0  0  0
 18 19  1  0  0  0  0
  1 20  1  0  0  0  0
  1 21  1  0  0  0  0
  1 22  1  0  0  0  0
  2 23  1  0  0  0  0
  2 24  1  0  0  0  0
  7 25  1  0  0  0  0
  7 26  1  0  0  0  0
  8 27  1  0  0  0  0
  8 28  1  0  0  0  0
  8 29  1  0  0  0  0
 10 30  1  0  0  0  0
 10 31  1  0  0  0  0
 15 32  1  0  0  0  0
 15 33  1  0  0  0  0
 16 34  1  0  0  0  0
 16 35  1  0  0  0  0
 16 36  1  0  0  0  0
 18 37  1  0  0  0  0
 18 38  1  0  0  0  0
 19 39  1  0  0  0  0
 19 40  1  0  0  0  0
 19 41  1  0  0  0  0
M  END
