 xtb: 6.7.1 (edcfbbe)
          04092505213D

 41 40  0     0  0            999 V2000
    4.2618   -1.9324    0.7306 C   0  0  0  0  0  0  0  0  0  0  0  0
    4.7843   -0.6419    0.1344 C   0  0  0  0  0  0  0  0  0  0  0  0
    3.7859    0.3968    0.1161 O   0  0  0  0  0  0  0  0  0  0  0  0
    2.4687    0.3000   -0.7701 P   0  0  0  0  0  0  0  0  0  0  0  0
    2.6713   -0.4611   -2.5581 S   0  0  0  0  0  0  0  0  0  0  0  0
    1.9976    1.8045   -0.8252 O   0  0  0  0  0  0  0  0  0  0  0  0
    1.9185    2.6405    0.3564 C   0  0  0  0  0  0  0  0  0  0  0  0
    1.1518    3.8919   -0.0131 C   0  0  0  0  0  0  0  0  0  0  0  0
    1.0650   -0.6793    0.4897 S   0  0  0  0  0  0  0  0  0  0  0  0
   -0.1126   -1.0631   -0.8556 C   0  0  0  0  0  0  0  0  0  0  0  0
   -1.6041   -1.8447   -0.2232 S   0  0  0  0  0  0  0  0  0  0  0  0
   -2.5623   -0.1002    0.5627 P   0  0  0  0  0  0  0  0  0  0  0  0
   -1.8161    1.6157   -0.0369 S   0  0  0  0  0  0  0  0  0  0  0  0
   -2.6676   -0.3000    2.1270 O   0  0  0  0  0  0  0  0  0  0  0  0
   -1.5759   -0.0792    3.0403 C   0  0  0  0  0  0  0  0  0  0  0  0
   -0.9020   -1.3861    3.4104 C   0  0  0  0  0  0  0  0  0  0  0  0
   -4.1000   -0.3278    0.2828 O   0  0  0  0  0  0  0  0  0  0  0  0
   -4.7375    0.1073   -0.9310 C   0  0  0  0  0  0  0  0  0  0  0  0
   -4.2808   -0.6845   -2.1405 C   0  0  0  0  0  0  0  0  0  0  0  0
    3.8126   -1.7469    1.7031 H   0  0  0  0  0  0  0  0  0  0  0  0
    3.5121   -2.3700    0.0731 H   0  0  0  0  0  0  0  0  0  0  0  0
    5.0831   -2.6334    0.8396 H   0  0  0  0  0  0  0  0  0  0  0  0
    5.1303   -0.8032   -0.8910 H   0  0  0  0  0  0  0  0  0  0  0  0
    5.5881   -0.2150    0.7359 H   0  0  0  0  0  0  0  0  0  0  0  0
    1.4085    2.0788    1.1449 H   0  0  0  0  0  0  0  0  0  0  0  0
    2.9373    2.8676    0.6753 H   0  0  0  0  0  0  0  0  0  0  0  0
    0.1344    3.6347   -0.2995 H   0  0  0  0  0  0  0  0  0  0  0  0
    1.1234    4.5579    0.8430 H   0  0  0  0  0  0  0  0  0  0  0  0
    1.6352    4.3919   -0.8472 H   0  0  0  0  0  0  0  0  0  0  0  0
    0.3544   -1.7620   -1.5470 H   0  0  0  0  0  0  0  0  0  0  0  0
   -0.3720   -0.1280   -1.3567 H   0  0  0  0  0  0  0  0  0  0  0  0
   -0.8653    0.6233    2.5922 H   0  0  0  0  0  0  0  0  0  0  0  0
   -2.0401    0.3851    3.9126 H   0  0  0  0  0  0  0  0  0  0  0  0
   -1.6433   -2.0931    3.7714 H   0  0  0  0  0  0  0  0  0  0  0  0
   -0.3933   -1.8144    2.5493 H   0  0  0  0  0  0  0  0  0  0  0  0
   -0.1713   -1.1990    4.1904 H   0  0  0  0  0  0  0  0  0  0  0  0
   -5.7999   -0.0426   -0.7333 H   0  0  0  0  0  0  0  0  0  0  0  0
   -4.5350    1.1746   -1.0692 H   0  0  0  0  0  0  0  0  0  0  0  0
   -4.3717   -1.7508   -1.9496 H   0  0  0  0  0  0  0  0  0  0  0  0
   -4.8940   -0.4175   -2.9955 H   0  0  0  0  0  0  0  0  0  0  0  0
   -3.2408   -0.4561   -2.3708 H   0  0  0  0  0  0  0  0  0  0  0  0
  1  2  1  0  0  0  0
  2  3  1  0  0  0  0
  3  4  2  0  0  0  0
  4  5  2  0  0  0  0
  4  6  2  0  0  0  0
  6  7  1  0  0  0  0
  7  8  1  0  0  0  0
  4  9  1  0  0  0  0
  9 10  1  0  0  0  0
 10 11  1  0  0  0  0
 11 12  1  0  0  0  0
 12 13  2  0  0  0  0
 12 14  2  0  0  0  0
 14 15  1  0  0  0  0
 15 16  1  0  0  0  0
 12 17  2  0  0  0  0
 17 18  1  0  0  0  0
 18 19  1  0  0  0  0
  1 20  1  0  0  0  0
  1 21  1  0  0  0  0
  1 22  1  0  0  0  0
  2 23  1  0  0  0  0
  2 24  1  0  0  0  0
  7 25  1  0  0  0  0
  7 26  1  0  0  0  0
  8 27  1  0  0  0  0
  8 28  1  0  0  0  0
  8 29  1  0  0  0  0
 10 30  1  0  0  0  0
 10 31  1  0  0  0  0
 15 32  1  0  0  0  0
 15 33  1  0  0  0  0
 16 34  1  0  0  0  0
 16 35  1  0  0  0  0
 16 36  1  0  0  0  0
 18 37  1  0  0  0  0
 18 38  1  0  0  0  0
 19 39  1  0  0  0  0
 19 40  1  0  0  0  0
 19 41  1  0  0  0  0
M  END
