11
CONF3
C -1.7510722365 -0.6590160353 0.0163671291
C -0.4612425837 0.0860540299 -0.0961345702
O -0.3453019802 1.2595027613 -0.4088651182
O 0.5952504993 -0.7056160744 0.1804311584
C 1.8999269501 -0.0809261329 0.0682534462
H -2.5884593179 0.0292166145 -0.0910270098
H -1.8068510630 -1.1788808478 0.9763503970
H -1.7959004865 -1.4174324545 -0.7720843447
H 1.9829425004 0.7505217495 0.7721646629
H 2.0625806364 0.2726005461 -0.9525935381
H 2.6162750083 -0.8625393735 0.3180330111
11
CONF2
C -1.7556570570 -0.6646445995 0.0019305708
C -0.4634325033 0.0847036003 -0.0266674823
O -0.3702181865 1.2999933706 -0.0916684173
O 0.6085070061 -0.7301279942 0.0317259074
C 1.9025319419 -0.0727261189 0.0152633697
H -1.6086196378 -1.7436842634 0.0371731963
H -2.3354788032 -0.3950821384 -0.8854980374
H -2.3253452665 -0.3393501399 0.8777296458
H 2.0254606879 0.4942573680 -0.9104339793
H 2.6349328749 -0.8773297511 0.0686794777
H 1.9997645709 0.5897966476 0.8785410389
