 xtb: 6.7.1 (edcfbbe)
          04092514003D

 41 40  0     0  0            999 V2000
    4.1310   -1.9577   -2.1722 C   0  0  0  0  0  0  0  0  0  0  0  0
    4.6435   -1.5241   -0.8138 C   0  0  0  0  0  0  0  0  0  0  0  0
    3.5793   -1.2665    0.1191 O   0  0  0  0  0  0  0  0  0  0  0  0
    2.6449    0.0168    0.0449 P   0  0  0  0  0  0  0  0  0  0  0  0
    3.5157    1.6442   -0.6024 S   0  0  0  0  0  0  0  0  0  0  0  0
    2.1609    0.1912    1.5357 O   0  0  0  0  0  0  0  0  0  0  0  0
    1.2056   -0.6229    2.2535 C   0  0  0  0  0  0  0  0  0  0  0  0
    1.5935   -2.0852    2.3055 C   0  0  0  0  0  0  0  0  0  0  0  0
    0.9408   -0.6368   -1.0701 S   0  0  0  0  0  0  0  0  0  0  0  0
    0.2856    1.0007   -1.4687 C   0  0  0  0  0  0  0  0  0  0  0  0
   -0.5335    1.8087   -0.0627 S   0  0  0  0  0  0  0  0  0  0  0  0
   -2.3132    0.6534   -0.0856 P   0  0  0  0  0  0  0  0  0  0  0  0
   -3.0025    0.1893   -1.8637 S   0  0  0  0  0  0  0  0  0  0  0  0
   -3.1513    1.6305    0.8365 O   0  0  0  0  0  0  0  0  0  0  0  0
   -4.2461    1.2028    1.6785 C   0  0  0  0  0  0  0  0  0  0  0  0
   -5.4968    0.8884    0.8818 C   0  0  0  0  0  0  0  0  0  0  0  0
   -2.0408   -0.5964    0.8628 O   0  0  0  0  0  0  0  0  0  0  0  0
   -2.0421   -1.9744    0.4415 C   0  0  0  0  0  0  0  0  0  0  0  0
   -3.1679   -2.7093    1.1418 C   0  0  0  0  0  0  0  0  0  0  0  0
    3.4490   -2.7977   -2.0721 H   0  0  0  0  0  0  0  0  0  0  0  0
    3.6088   -1.1347   -2.6570 H   0  0  0  0  0  0  0  0  0  0  0  0
    4.9735   -2.2510   -2.7909 H   0  0  0  0  0  0  0  0  0  0  0  0
    5.2538   -0.6198   -0.9034 H   0  0  0  0  0  0  0  0  0  0  0  0
    5.2222   -2.3149   -0.3339 H   0  0  0  0  0  0  0  0  0  0  0  0
    1.1924   -0.1725    3.2472 H   0  0  0  0  0  0  0  0  0  0  0  0
    0.2267   -0.4891    1.7862 H   0  0  0  0  0  0  0  0  0  0  0  0
    1.6011   -2.5120    1.3042 H   0  0  0  0  0  0  0  0  0  0  0  0
    2.5841   -2.1954    2.7386 H   0  0  0  0  0  0  0  0  0  0  0  0
    0.8736   -2.6195    2.9185 H   0  0  0  0  0  0  0  0  0  0  0  0
   -0.4322    0.8680   -2.2791 H   0  0  0  0  0  0  0  0  0  0  0  0
    1.1075    1.6534   -1.7662 H   0  0  0  0  0  0  0  0  0  0  0  0
   -3.9214    0.3350    2.2573 H   0  0  0  0  0  0  0  0  0  0  0  0
   -4.4034    2.0532    2.3440 H   0  0  0  0  0  0  0  0  0  0  0  0
   -5.3228    0.0462    0.2139 H   0  0  0  0  0  0  0  0  0  0  0  0
   -6.3024    0.6402    1.5663 H   0  0  0  0  0  0  0  0  0  0  0  0
   -5.7893    1.7460    0.2813 H   0  0  0  0  0  0  0  0  0  0  0  0
   -2.1588   -2.0143   -0.6462 H   0  0  0  0  0  0  0  0  0  0  0  0
   -1.0668   -2.3796    0.7158 H   0  0  0  0  0  0  0  0  0  0  0  0
   -3.1202   -3.7610    0.8796 H   0  0  0  0  0  0  0  0  0  0  0  0
   -3.0733   -2.6039    2.2190 H   0  0  0  0  0  0  0  0  0  0  0  0
   -4.1301   -2.3106    0.8291 H   0  0  0  0  0  0  0  0  0  0  0  0
  1  2  1  0  0  0  0
  2  3  1  0  0  0  0
  3  4  2  0  0  0  0
  4  5  2  0  0  0  0
  4  6  2  0  0  0  0
  6  7  1  0  0  0  0
  7  8  1  0  0  0  0
  4  9  1  0  0  0  0
  9 10  1  0  0  0  0
 10 11  1  0  0  0  0
 11 12  1  0  0  0  0
 12 13  2  0  0  0  0
 12 14  2  0  0  0  0
 14 15  1  0  0  0  0
 15 16  1  0  0  0  0
 12 17  2  0  0  0  0
 17 18  1  0  0  0  0
 18 19  1  0  0  0  0
  1 20  1  0  0  0  0
  1 21  1  0  0  0  0
  1 22  1  0  0  0  0
  2 23  1  0  0  0  0
  2 24  1  0  0  0  0
  7 25  1  0  0  0  0
  7 26  1  0  0  0  0
  8 27  1  0  0  0  0
  8 28  1  0  0  0  0
  8 29  1  0  0  0  0
 10 30  1  0  0  0  0
 10 31  1  0  0  0  0
 15 32  1  0  0  0  0
 15 33  1  0  0  0  0
 16 34  1  0  0  0  0
 16 35  1  0  0  0  0
 16 36  1  0  0  0  0
 18 37  1  0  0  0  0
 18 38  1  0  0  0  0
 19 39  1  0  0  0  0
 19 40  1  0  0  0  0
 19 41  1  0  0  0  0
M  END
