 xtb: 6.7.1 (edcfbbe)
          04092507313D

 38 37  0     0  0            999 V2000
    5.2971   -2.8713   -0.0109 C   0  0  0  0  0  0  0  0  0  0  0  0
    4.3480   -1.8551    0.5948 C   0  0  0  0  0  0  0  0  0  0  0  0
    3.1038   -1.9085   -0.1344 O   0  0  0  0  0  0  0  0  0  0  0  0
    2.3614   -0.8298   -0.2040 C   0  0  0  0  0  0  0  0  0  0  0  0
    2.6477    0.2400    0.2981 O   0  0  0  0  0  0  0  0  0  0  0  0
    1.0816   -1.0741   -0.9681 C   0  0  0  0  0  0  0  0  0  0  0  0
    0.4534    0.2506   -1.3827 C   0  0  0  0  0  0  0  0  0  0  0  0
    0.9186    0.6616   -2.2796 H   0  0  0  0  0  0  0  0  0  0  0  0
    0.5039    1.2872   -0.2758 C   0  0  0  0  0  0  0  0  0  0  0  0
   -0.0575    1.1174    0.7909 O   0  0  0  0  0  0  0  0  0  0  0  0
    1.0680    2.3964   -0.6699 O   0  0  0  0  0  0  0  0  0  0  0  0
    1.1921    3.4931    0.2600 C   0  0  0  0  0  0  0  0  0  0  0  0
    2.6204    3.5790    0.7705 C   0  0  0  0  0  0  0  0  0  0  0  0
   -1.3193    0.0695   -1.7855 S   0  0  0  0  0  0  0  0  0  0  0  0
   -2.2200   -0.2562    0.0964 P   0  0  0  0  0  0  0  0  0  0  0  0
   -1.5092   -1.5476    1.4022 S   0  0  0  0  0  0  0  0  0  0  0  0
   -2.6767    1.1869    0.5876 O   0  0  0  0  0  0  0  0  0  0  0  0
   -2.8000    1.5228    1.9760 C   0  0  0  0  0  0  0  0  0  0  0  0
   -3.6570   -0.7389   -0.4348 O   0  0  0  0  0  0  0  0  0  0  0  0
   -3.8694   -2.0587   -0.9450 C   0  0  0  0  0  0  0  0  0  0  0  0
    5.5046   -2.6223   -1.0474 H   0  0  0  0  0  0  0  0  0  0  0  0
    6.2259   -2.8704    0.5497 H   0  0  0  0  0  0  0  0  0  0  0  0
    4.8532   -3.8611    0.0309 H   0  0  0  0  0  0  0  0  0  0  0  0
    4.7419   -0.8361    0.5347 H   0  0  0  0  0  0  0  0  0  0  0  0
    4.1272   -2.0877    1.6405 H   0  0  0  0  0  0  0  0  0  0  0  0
    0.4196   -1.6114   -0.2782 H   0  0  0  0  0  0  0  0  0  0  0  0
    1.2636   -1.7156   -1.8284 H   0  0  0  0  0  0  0  0  0  0  0  0
    0.9168    4.3803   -0.3124 H   0  0  0  0  0  0  0  0  0  0  0  0
    0.4872    3.3338    1.0806 H   0  0  0  0  0  0  0  0  0  0  0  0
    2.6988    4.3883    1.4886 H   0  0  0  0  0  0  0  0  0  0  0  0
    2.8944    2.6417    1.2493 H   0  0  0  0  0  0  0  0  0  0  0  0
    3.3016    3.7585   -0.0558 H   0  0  0  0  0  0  0  0  0  0  0  0
   -3.6813    1.0420    2.3987 H   0  0  0  0  0  0  0  0  0  0  0  0
   -2.8991    2.6049    2.0043 H   0  0  0  0  0  0  0  0  0  0  0  0
   -1.9064    1.2061    2.5154 H   0  0  0  0  0  0  0  0  0  0  0  0
   -4.9471   -2.2001   -0.9543 H   0  0  0  0  0  0  0  0  0  0  0  0
   -3.3938   -2.7920   -0.2906 H   0  0  0  0  0  0  0  0  0  0  0  0
   -3.4628   -2.1370   -1.9528 H   0  0  0  0  0  0  0  0  0  0  0  0
  1  2  1  0  0  0  0
  2  3  1  0  0  0  0
  3  4  4  0  0  0  0
  4  5  2  0  0  0  0
  4  6  1  0  0  0  0
  6  7  1  0  0  0  0
  7  8  1  0  0  0  0
  7  9  1  0  0  0  0
  9 10  2  0  0  0  0
  9 11  4  0  0  0  0
 11 12  1  0  0  0  0
 12 13  1  0  0  0  0
  7 14  1  0  0  0  0
 14 15  1  0  0  0  0
 15 16  2  0  0  0  0
 15 17  1  0  0  0  0
 17 18  1  0  0  0  0
 15 19  1  0  0  0  0
 19 20  1  0  0  0  0
  1 21  1  0  0  0  0
  1 22  1  0  0  0  0
  1 23  1  0  0  0  0
  2 24  1  0  0  0  0
  2 25  1  0  0  0  0
  6 26  1  0  0  0  0
  6 27  1  0  0  0  0
 12 28  1  0  0  0  0
 12 29  1  0  0  0  0
 13 30  1  0  0  0  0
 13 31  1  0  0  0  0
 13 32  1  0  0  0  0
 18 33  1  0  0  0  0
 18 34  1  0  0  0  0
 18 35  1  0  0  0  0
 20 36  1  0  0  0  0
 20 37  1  0  0  0  0
 20 38  1  0  0  0  0
M  END
