41
 xtb: 6.7.1 (edcfbbe)
C            4.25372795437643       -1.90240898957014       -2.26480459422549
C            4.68531642496492       -1.62751634548594       -0.84654081699117
O            3.54143559691825       -1.42361852727419        0.05622762088949
P            2.72460001943838       -0.04158137785232        0.15017153134717
S            3.69205435879990        1.60374689298598       -0.22995031954233
O            2.18892809854339       -0.06091228905107        1.66115967528530
C            1.10411836534284       -0.91705370105666        2.17399527022370
C            1.43628489511638       -2.38817600030777        2.14162881873128
S            1.08258385477682       -0.47212891585214       -1.13636963300622
C            0.37235689305536        1.20391511545044       -1.37211686293614
S           -0.60619286253917        1.90520968025864        0.00691813851018
P           -2.39570703419510        0.75744751565258       -0.16109158475131
S           -2.89742814366572        0.20392549564767       -1.95869228757946
O           -3.32738739395231        1.81606801008241        0.60705409076312
C           -4.79732785184783        1.69541292601339        0.58250277434098
C           -5.29953583938155        0.47267314734109        1.31123996509296
O           -2.28108365658436       -0.42517030988916        0.92665639401149
C           -2.20404334450282       -1.85047115567775        0.58964948407105
C           -2.44931976042832       -2.61143864757885        1.86739118067878
H            5.14026804565376       -2.17039907995132       -2.84905104760099
H            3.54947686430603       -2.73847894183561       -2.30593111055408
H            3.79480706911188       -1.02394824352058       -2.72634466544215
H            5.33475572780691       -0.74998165331238       -0.77736412033447
H            5.19892108852969       -2.48645339856960       -0.41027810755394
H            0.97772388658420       -0.56020384587972        3.19819229848412
H            0.19980606834044       -0.68262221936793        1.60677651372189
H            1.47117818883330       -2.78317930327396        1.12263785406127
H            2.39264581877907       -2.58637282777784        2.63400035572088
H            0.65302035735384       -2.92582553167283        2.68594261789013
H           -0.25471036239492        1.13977375424692       -2.26632396449411
H            1.18589550180637        1.91431259253220       -1.54927712142390
H           -5.12812275720236        2.61476543988955        1.06860491230633
H           -5.11719623940267        1.70982954977509       -0.46394576783176
H           -6.39136928616742        0.53585460157953        1.36651090560326
H           -5.04136123924398       -0.45209880988587        0.78725299712162
H           -4.90508612132922        0.43020599534772        2.33033176194604
H           -2.96000324482698       -2.07188572410637       -0.16862353831321
H           -1.21074999675891       -2.05434574156388        0.17635970006283
H           -2.35703597893114       -3.68299185138599        1.66506476124783
H           -1.71712187156257       -2.33985299658057        2.63310701607274
H           -3.45492414836665       -2.41426776170983        2.25033793702728
