41
 xtb: 6.7.1 (edcfbbe)
C            4.95640385445228       -1.87976283044825       -0.67717186936323
C            4.91284952364745       -0.41394995347986       -0.32472426970973
O            3.68728637438596       -0.05594323199211        0.40350825010225
P            2.27047057210079        0.18386375515549       -0.32655384348398
S            2.31271226733733        0.77858750678315       -2.18115116154497
O            1.53422368170141        1.14714376453649        0.72774691898577
C            1.58202279871108        2.61075930203678        0.59348419581422
C            2.93802292893906        3.16382559667127        0.95907453539632
S            1.32702506464905       -1.67184455627502        0.05465886166191
C           -0.15917078018161       -1.56855373406570       -1.04443467533900
S           -1.74283429811192       -1.91633725000415       -0.19765145765041
P           -2.58221676923445        0.01757942360329        0.17583928688385
S           -1.83610141039954        1.46333277002359       -0.88651523651002
O           -2.55336661705275        0.18759095930768        1.77661091369908
C           -1.26409727992175        0.39236657517872        2.44686024006380
C           -1.50560290671615        0.27611255973185        3.92898168458142
O           -4.15519515747535       -0.28393294387877        0.07070806751602
C           -4.92755201696928        0.00100529251420       -1.14896117041233
C           -4.69104135295528       -1.02046531142076       -2.23256989484613
H            4.82850558644466       -2.50202486510899        0.21330623729201
H            4.18852130773456       -2.14216588007646       -1.41033469861092
H            5.93521635681594       -2.10190529060822       -1.11496357167210
H            4.98274773523700        0.22335239101517       -1.21114128763556
H            5.70917204468947       -0.14465221598979        0.37203874637991
H            1.29277529687346        2.87041175420237       -0.42913657689647
H            0.80624372497369        2.95462271499220        1.28079764732372
H            2.88585133046602        4.25737308037893        0.93897922454266
H            3.23122668552439        2.85072424691486        1.96525025961637
H            3.70833382248681        2.84774226764684        0.24887669963779
H           -0.05269644335705       -2.33707961019490       -1.81302905590020
H           -0.20488670210107       -0.58351536024756       -1.52218228397490
H           -0.55914084363898       -0.36972036528307        2.09401754646280
H           -0.89235681391544        1.38311477461090        2.16825285509846
H           -1.88069264789604       -0.71798001650277        4.18793466753751
H           -0.55904656436492        0.43668136829090        4.45391228198146
H           -2.22151696155014        1.02964093183551        4.26906627920268
H           -5.96122094460951       -0.01746123574402       -0.79872181335939
H           -4.68112787979482        1.01405659365288       -1.48018668594263
H           -5.37632079558593       -0.80690900910394       -3.05956658514968
H           -3.66866058275605       -0.97437382971155       -2.61777749795977
H           -4.89178203225898       -2.03300633097819       -1.87122633964969
