 xtb: 6.7.1 (edcfbbe)
          04092507313D

 38 37  0     0  0            999 V2000
    3.5666   -3.8562   -0.0319 C   0  0  0  0  0  0  0  0  0  0  0  0
    3.7543   -3.0298   -1.2939 C   0  0  0  0  0  0  0  0  0  0  0  0
    2.5012   -2.4632   -1.7298 O   0  0  0  0  0  0  0  0  0  0  0  0
    2.1158   -1.3155   -1.2182 C   0  0  0  0  0  0  0  0  0  0  0  0
    2.7556   -0.6638   -0.4173 O   0  0  0  0  0  0  0  0  0  0  0  0
    0.7534   -0.9054   -1.7319 C   0  0  0  0  0  0  0  0  0  0  0  0
    0.4874    0.5662   -1.4294 C   0  0  0  0  0  0  0  0  0  0  0  0
    0.9521    1.2296   -2.1591 H   0  0  0  0  0  0  0  0  0  0  0  0
    0.9366    0.9545   -0.0351 C   0  0  0  0  0  0  0  0  0  0  0  0
    0.4538    0.4212    0.9481 O   0  0  0  0  0  0  0  0  0  0  0  0
    1.7705    1.9570   -0.0330 O   0  0  0  0  0  0  0  0  0  0  0  0
    2.2342    2.4651    1.2356 C   0  0  0  0  0  0  0  0  0  0  0  0
    1.3121    3.5595    1.7477 C   0  0  0  0  0  0  0  0  0  0  0  0
   -1.2982    0.9324   -1.4673 S   0  0  0  0  0  0  0  0  0  0  0  0
   -2.0406    0.3241    0.4420 P   0  0  0  0  0  0  0  0  0  0  0  0
   -1.9911    1.4475    2.0440 S   0  0  0  0  0  0  0  0  0  0  0  0
   -3.5836    0.2876    0.0288 O   0  0  0  0  0  0  0  0  0  0  0  0
   -4.1353   -0.5494   -1.0040 C   0  0  0  0  0  0  0  0  0  0  0  0
   -1.7086   -1.2446    0.5839 O   0  0  0  0  0  0  0  0  0  0  0  0
   -1.0691   -1.8279    1.7188 C   0  0  0  0  0  0  0  0  0  0  0  0
    2.8182   -4.6266   -0.1955 H   0  0  0  0  0  0  0  0  0  0  0  0
    4.5089   -4.3236    0.2338 H   0  0  0  0  0  0  0  0  0  0  0  0
    3.2472   -3.2189    0.7902 H   0  0  0  0  0  0  0  0  0  0  0  0
    4.0759   -3.6489   -2.1312 H   0  0  0  0  0  0  0  0  0  0  0  0
    4.4644   -2.2160   -1.1231 H   0  0  0  0  0  0  0  0  0  0  0  0
    0.0202   -1.5348   -1.2193 H   0  0  0  0  0  0  0  0  0  0  0  0
    0.6748   -1.1068   -2.7992 H   0  0  0  0  0  0  0  0  0  0  0  0
    2.2878    1.6333    1.9426 H   0  0  0  0  0  0  0  0  0  0  0  0
    3.2318    2.8487    1.0215 H   0  0  0  0  0  0  0  0  0  0  0  0
    1.2163    4.3472    1.0055 H   0  0  0  0  0  0  0  0  0  0  0  0
    0.3242    3.1552    1.9638 H   0  0  0  0  0  0  0  0  0  0  0  0
    1.7241    3.9745    2.6613 H   0  0  0  0  0  0  0  0  0  0  0  0
   -5.2097   -0.5288   -0.8395 H   0  0  0  0  0  0  0  0  0  0  0  0
   -3.7528   -1.5643   -0.9108 H   0  0  0  0  0  0  0  0  0  0  0  0
   -3.8893   -0.1387   -1.9818 H   0  0  0  0  0  0  0  0  0  0  0  0
   -1.5263   -2.8053    1.8537 H   0  0  0  0  0  0  0  0  0  0  0  0
   -1.2209   -1.2057    2.6019 H   0  0  0  0  0  0  0  0  0  0  0  0
    0.0004   -1.9167    1.5303 H   0  0  0  0  0  0  0  0  0  0  0  0
  1  2  1  0  0  0  0
  2  3  1  0  0  0  0
  3  4  4  0  0  0  0
  4  5  2  0  0  0  0
  4  6  1  0  0  0  0
  6  7  1  0  0  0  0
  7  8  1  0  0  0  0
  7  9  1  0  0  0  0
  9 10  2  0  0  0  0
  9 11  4  0  0  0  0
 11 12  1  0  0  0  0
 12 13  1  0  0  0  0
  7 14  1  0  0  0  0
 14 15  1  0  0  0  0
 15 16  2  0  0  0  0
 15 17  1  0  0  0  0
 17 18  1  0  0  0  0
 15 19  1  0  0  0  0
 19 20  1  0  0  0  0
  1 21  1  0  0  0  0
  1 22  1  0  0  0  0
  1 23  1  0  0  0  0
  2 24  1  0  0  0  0
  2 25  1  0  0  0  0
  6 26  1  0  0  0  0
  6 27  1  0  0  0  0
 12 28  1  0  0  0  0
 12 29  1  0  0  0  0
 13 30  1  0  0  0  0
 13 31  1  0  0  0  0
 13 32  1  0  0  0  0
 18 33  1  0  0  0  0
 18 34  1  0  0  0  0
 18 35  1  0  0  0  0
 20 36  1  0  0  0  0
 20 37  1  0  0  0  0
 20 38  1  0  0  0  0
M  END
