41
 xtb: 6.7.1 (edcfbbe)
C            0.92758302380187       -1.62577121535288        3.08008595867194
C            1.91286614579852       -0.54510906523565        2.71504845374839
O            1.48203927973976        0.08661409538792        1.45461163029164
P            2.36717104905181       -0.05303381564065        0.12393053076312
S            3.02718308522519       -1.82835506675854       -0.33400601092023
O            3.47595013972893        1.08895869604364        0.37827614372825
C            4.78559834105751        1.09790954446536       -0.28750441504057
C            4.69871739877717        1.60750244224718       -1.70452514433011
S            1.09082525442056        0.87878528177260       -1.28316058483705
C            0.14100459324795       -0.55864093024270       -1.91774686387423
S           -0.93825626395808       -1.46640745588349       -0.74270544617676
P           -2.35375890025042        0.02587514081474       -0.24687102802050
S           -2.87308268829578        1.24848166903975       -1.67265839303837
O           -1.66428887080056        0.65855888197979        1.05649720724903
C           -2.24165285765105        1.84750742038281        1.70954502034357
C           -1.26929492506869        2.99186200721412        1.58236670887847
O           -3.53281185343200       -0.84044489418536        0.42934419266866
C           -4.73873038040149       -1.26188147549119       -0.29665147506743
C           -4.48697046565361       -2.47667440145840       -1.15448942145835
H            0.93977154021240       -2.43219529055544        2.34165205985155
H            1.19780141967579       -2.04287511272315        4.05565668262070
H           -0.08589240817925       -1.21843857893528        3.14606127471004
H            2.92804212450907       -0.93822404364409        2.60320180751920
H            1.92631792794399        0.26391321221100        3.44951136289814
H            5.38510736524230        1.75938615998180        0.34105294255012
H            5.20118385497167        0.08700695453742       -0.24050274143604
H            4.14061870102497        0.92089655411490       -2.34728320572689
H            4.22628803860979        2.59357840321904       -1.73880653651463
H            5.71442862002045        1.69758637739003       -2.10347948025555
H            0.83299688708621       -1.31113270941687       -2.30703730955485
H           -0.46467743172181       -0.16044902346178       -2.73704783241153
H           -3.21071691280399        2.08263307619243        1.25864732961069
H           -2.39838260932195        1.55424090511709        2.75049924359986
H           -1.13674926969302        3.27826999299172        0.53530649026057
H           -1.65714899726962        3.85508093859400        2.13297048482012
H           -0.29625281968440        2.72124002054236        2.00370737610250
H           -5.45429891973420       -1.47428636227919        0.50028020842882
H           -5.10049846923814       -0.41263364793811       -0.88387821413595
H           -4.06963174818167       -3.29609518639725       -0.56183601476031
H           -5.44193139282484       -2.80772827010061       -1.57583581058539
H           -3.80878976707381       -2.25318405283428       -1.98286817045684
