 xtb: 6.7.1 (edcfbbe)
          04092505213D

 41 40  0     0  0            999 V2000
    4.5911    0.5419   -2.1651 C   0  0  0  0  0  0  0  0  0  0  0  0
    4.4712    1.1763   -0.7948 C   0  0  0  0  0  0  0  0  0  0  0  0
    3.7098    0.3597    0.1115 O   0  0  0  0  0  0  0  0  0  0  0  0
    2.1481    0.1107   -0.0667 P   0  0  0  0  0  0  0  0  0  0  0  0
    1.1656    1.7188   -0.6293 S   0  0  0  0  0  0  0  0  0  0  0  0
    1.7676   -0.4881    1.3482 O   0  0  0  0  0  0  0  0  0  0  0  0
    1.7248    0.3404    2.5315 C   0  0  0  0  0  0  0  0  0  0  0  0
    0.9625   -0.4182    3.5977 C   0  0  0  0  0  0  0  0  0  0  0  0
    2.0218   -1.6311   -1.2306 S   0  0  0  0  0  0  0  0  0  0  0  0
    0.2407   -1.6539   -1.5623 C   0  0  0  0  0  0  0  0  0  0  0  0
   -0.7668   -1.9177   -0.0710 S   0  0  0  0  0  0  0  0  0  0  0  0
   -1.8944   -0.1331   -0.0460 P   0  0  0  0  0  0  0  0  0  0  0  0
   -2.0874    0.7375   -1.7998 S   0  0  0  0  0  0  0  0  0  0  0  0
   -1.2517    0.6357    1.1790 O   0  0  0  0  0  0  0  0  0  0  0  0
   -1.9388    1.6599    1.9348 C   0  0  0  0  0  0  0  0  0  0  0  0
   -2.2450    2.8812    1.0937 C   0  0  0  0  0  0  0  0  0  0  0  0
   -3.2809   -0.5808    0.5923 O   0  0  0  0  0  0  0  0  0  0  0  0
   -4.3159   -1.2069   -0.1902 C   0  0  0  0  0  0  0  0  0  0  0  0
   -5.6442   -0.9491    0.4927 C   0  0  0  0  0  0  0  0  0  0  0  0
    4.9655   -0.4750   -2.0791 H   0  0  0  0  0  0  0  0  0  0  0  0
    3.6151    0.5158   -2.6485 H   0  0  0  0  0  0  0  0  0  0  0  0
    5.2701    1.1286   -2.7753 H   0  0  0  0  0  0  0  0  0  0  0  0
    3.9879    2.1563   -0.8647 H   0  0  0  0  0  0  0  0  0  0  0  0
    5.4418    1.2730   -0.3068 H   0  0  0  0  0  0  0  0  0  0  0  0
    2.7542    0.5428    2.8372 H   0  0  0  0  0  0  0  0  0  0  0  0
    1.2351    1.2854    2.2726 H   0  0  0  0  0  0  0  0  0  0  0  0
    1.4569   -1.3638    3.8004 H   0  0  0  0  0  0  0  0  0  0  0  0
    0.9287    0.1752    4.5057 H   0  0  0  0  0  0  0  0  0  0  0  0
   -0.0496   -0.6207    3.2570 H   0  0  0  0  0  0  0  0  0  0  0  0
    0.0802   -2.4946   -2.2324 H   0  0  0  0  0  0  0  0  0  0  0  0
   -0.0719   -0.7152   -2.0302 H   0  0  0  0  0  0  0  0  0  0  0  0
   -2.8510    1.2260    2.3496 H   0  0  0  0  0  0  0  0  0  0  0  0
   -1.2389    1.8962    2.7384 H   0  0  0  0  0  0  0  0  0  0  0  0
   -2.9704    2.6352    0.3195 H   0  0  0  0  0  0  0  0  0  0  0  0
   -2.6494    3.6658    1.7252 H   0  0  0  0  0  0  0  0  0  0  0  0
   -1.3383    3.2384    0.6082 H   0  0  0  0  0  0  0  0  0  0  0  0
   -4.2940   -0.7829   -1.1999 H   0  0  0  0  0  0  0  0  0  0  0  0
   -4.0949   -2.2755   -0.2441 H   0  0  0  0  0  0  0  0  0  0  0  0
   -5.8475    0.1176    0.5299 H   0  0  0  0  0  0  0  0  0  0  0  0
   -6.4315   -1.4424   -0.0675 H   0  0  0  0  0  0  0  0  0  0  0  0
   -5.6235   -1.3410    1.5055 H   0  0  0  0  0  0  0  0  0  0  0  0
  1  2  1  0  0  0  0
  2  3  1  0  0  0  0
  3  4  2  0  0  0  0
  4  5  2  0  0  0  0
  4  6  2  0  0  0  0
  6  7  1  0  0  0  0
  7  8  1  0  0  0  0
  4  9  1  0  0  0  0
  9 10  1  0  0  0  0
 10 11  1  0  0  0  0
 11 12  1  0  0  0  0
 12 13  2  0  0  0  0
 12 14  2  0  0  0  0
 14 15  1  0  0  0  0
 15 16  1  0  0  0  0
 12 17  2  0  0  0  0
 17 18  1  0  0  0  0
 18 19  1  0  0  0  0
  1 20  1  0  0  0  0
  1 21  1  0  0  0  0
  1 22  1  0  0  0  0
  2 23  1  0  0  0  0
  2 24  1  0  0  0  0
  7 25  1  0  0  0  0
  7 26  1  0  0  0  0
  8 27  1  0  0  0  0
  8 28  1  0  0  0  0
  8 29  1  0  0  0  0
 10 30  1  0  0  0  0
 10 31  1  0  0  0  0
 15 32  1  0  0  0  0
 15 33  1  0  0  0  0
 16 34  1  0  0  0  0
 16 35  1  0  0  0  0
 16 36  1  0  0  0  0
 18 37  1  0  0  0  0
 18 38  1  0  0  0  0
 19 39  1  0  0  0  0
 19 40  1  0  0  0  0
 19 41  1  0  0  0  0
M  END
