 xtb: 6.7.1 (edcfbbe)
          04032519423D

 20 20  0     0  0            999 V2000
    0.8678    1.3802   -0.5933 C   0  0  0  0  0  0  0  0  0  0  0  0
    1.5894    0.1486   -0.0250 C   0  0  0  0  0  0  0  0  0  0  0  0
    2.5540    0.0524   -0.5340 H   0  0  0  0  0  0  0  0  0  0  0  0
    0.7600   -1.1186   -0.3158 C   0  0  0  0  0  0  0  0  0  0  0  0
    1.1907   -1.9410    0.2712 H   0  0  0  0  0  0  0  0  0  0  0  0
   -0.6945   -0.9097    0.1472 C   0  0  0  0  0  0  0  0  0  0  0  0
   -1.3208   -1.7456   -0.2018 H   0  0  0  0  0  0  0  0  0  0  0  0
   -1.2499    0.3829   -0.4745 C   0  0  0  0  0  0  0  0  0  0  0  0
   -1.2513    0.2729   -1.5790 H   0  0  0  0  0  0  0  0  0  0  0  0
   -0.4601    1.4931   -0.1206 O   0  0  0  0  0  0  0  0  0  0  0  0
   -2.5262    0.5799    0.0230 O   0  0  0  0  0  0  0  0  0  0  0  0
   -0.7139   -0.8345    1.5497 O   0  0  0  0  0  0  0  0  0  0  0  0
    0.8247   -1.3734   -1.6967 O   0  0  0  0  0  0  0  0  0  0  0  0
    1.8792    0.2772    1.3411 O   0  0  0  0  0  0  0  0  0  0  0  0
    0.8676    1.3120   -1.6890 H   0  0  0  0  0  0  0  0  0  0  0  0
    1.3700    2.2908   -0.2679 H   0  0  0  0  0  0  0  0  0  0  0  0
   -2.8050    1.4914   -0.1548 H   0  0  0  0  0  0  0  0  0  0  0  0
   -1.5890   -0.5127    1.8205 H   0  0  0  0  0  0  0  0  0  0  0  0
    0.5846   -2.2935   -1.8771 H   0  0  0  0  0  0  0  0  0  0  0  0
    1.0466    0.2027    1.8394 H   0  0  0  0  0  0  0  0  0  0  0  0
  1  2  1  0  0  0  0
  2  3  1  0  0  0  0
  2  4  1  0  0  0  0
  4  5  1  0  0  0  0
  4  6  1  0  0  0  0
  6  7  1  0  0  0  0
  6  8  1  0  0  0  0
  8  9  1  0  0  0  0
  1 10  1  0  0  0  0
  8 10  1  0  0  0  0
  8 11  1  0  0  0  0
  6 12  1  0  0  0  0
  4 13  1  0  0  0  0
  2 14  1  0  0  0  0
  1 15  1  0  0  0  0
  1 16  1  0  0  0  0
 11 17  1  0  0  0  0
 12 18  1  0  0  0  0
 13 19  1  0  0  0  0
 14 20  1  0  0  0  0
M  END
