 xtb: 6.7.1 (edcfbbe)
          04092505213D

 41 40  0     0  0            999 V2000
    4.1718   -0.8102   -1.8167 C   0  0  0  0  0  0  0  0  0  0  0  0
    2.8631   -0.0731   -1.9981 C   0  0  0  0  0  0  0  0  0  0  0  0
    2.4515    0.6521   -0.8140 O   0  0  0  0  0  0  0  0  0  0  0  0
    2.2865    0.0763    0.6451 P   0  0  0  0  0  0  0  0  0  0  0  0
    1.2578    1.2971    1.7761 S   0  0  0  0  0  0  0  0  0  0  0  0
    3.7885   -0.1457    1.1120 O   0  0  0  0  0  0  0  0  0  0  0  0
    4.1611   -0.2583    2.4965 C   0  0  0  0  0  0  0  0  0  0  0  0
    3.6101   -1.5132    3.1423 C   0  0  0  0  0  0  0  0  0  0  0  0
    1.5020   -1.8960    0.4415 S   0  0  0  0  0  0  0  0  0  0  0  0
   -0.2327   -1.4368    0.3331 C   0  0  0  0  0  0  0  0  0  0  0  0
   -0.5931   -0.6699   -1.2999 S   0  0  0  0  0  0  0  0  0  0  0  0
   -2.2872    0.4605   -0.7852 P   0  0  0  0  0  0  0  0  0  0  0  0
   -3.1199    1.3824   -2.3001 S   0  0  0  0  0  0  0  0  0  0  0  0
   -1.6537    1.3245    0.3803 O   0  0  0  0  0  0  0  0  0  0  0  0
   -2.3946    1.9375    1.4558 C   0  0  0  0  0  0  0  0  0  0  0  0
   -3.3503    3.0003    0.9580 C   0  0  0  0  0  0  0  0  0  0  0  0
   -3.2615   -0.5085    0.0304 O   0  0  0  0  0  0  0  0  0  0  0  0
   -4.3168   -1.2337   -0.6234 C   0  0  0  0  0  0  0  0  0  0  0  0
   -3.7809   -2.3900   -1.4430 C   0  0  0  0  0  0  0  0  0  0  0  0
    4.9450   -0.1267   -1.4756 H   0  0  0  0  0  0  0  0  0  0  0  0
    4.0588   -1.6090   -1.0867 H   0  0  0  0  0  0  0  0  0  0  0  0
    4.4660   -1.2405   -2.7690 H   0  0  0  0  0  0  0  0  0  0  0  0
    2.0561   -0.7602   -2.2711 H   0  0  0  0  0  0  0  0  0  0  0  0
    2.9408    0.7116   -2.7522 H   0  0  0  0  0  0  0  0  0  0  0  0
    5.2516   -0.2635    2.4707 H   0  0  0  0  0  0  0  0  0  0  0  0
    3.8062    0.6330    3.0237 H   0  0  0  0  0  0  0  0  0  0  0  0
    4.0312   -1.6164    4.1372 H   0  0  0  0  0  0  0  0  0  0  0  0
    2.5267   -1.4450    3.2240 H   0  0  0  0  0  0  0  0  0  0  0  0
    3.8640   -2.3880    2.5495 H   0  0  0  0  0  0  0  0  0  0  0  0
   -0.4620   -0.7113    1.1145 H   0  0  0  0  0  0  0  0  0  0  0  0
   -0.8104   -2.3507    0.4372 H   0  0  0  0  0  0  0  0  0  0  0  0
   -2.9278    1.1529    1.9975 H   0  0  0  0  0  0  0  0  0  0  0  0
   -1.6099    2.3578    2.0891 H   0  0  0  0  0  0  0  0  0  0  0  0
   -3.8296    3.4785    1.8063 H   0  0  0  0  0  0  0  0  0  0  0  0
   -2.8137    3.7480    0.3786 H   0  0  0  0  0  0  0  0  0  0  0  0
   -4.1120    2.5519    0.3211 H   0  0  0  0  0  0  0  0  0  0  0  0
   -4.9516   -1.5754    0.1951 H   0  0  0  0  0  0  0  0  0  0  0  0
   -4.8698   -0.5375   -1.2621 H   0  0  0  0  0  0  0  0  0  0  0  0
   -3.1968   -3.0634   -0.8214 H   0  0  0  0  0  0  0  0  0  0  0  0
   -4.6122   -2.9358   -1.8773 H   0  0  0  0  0  0  0  0  0  0  0  0
   -3.1502   -2.0118   -2.2472 H   0  0  0  0  0  0  0  0  0  0  0  0
  1  2  1  0  0  0  0
  2  3  1  0  0  0  0
  3  4  2  0  0  0  0
  4  5  2  0  0  0  0
  4  6  2  0  0  0  0
  6  7  1  0  0  0  0
  7  8  1  0  0  0  0
  4  9  1  0  0  0  0
  9 10  1  0  0  0  0
 10 11  1  0  0  0  0
 11 12  1  0  0  0  0
 12 13  2  0  0  0  0
 12 14  2  0  0  0  0
 14 15  1  0  0  0  0
 15 16  1  0  0  0  0
 12 17  2  0  0  0  0
 17 18  1  0  0  0  0
 18 19  1  0  0  0  0
  1 20  1  0  0  0  0
  1 21  1  0  0  0  0
  1 22  1  0  0  0  0
  2 23  1  0  0  0  0
  2 24  1  0  0  0  0
  7 25  1  0  0  0  0
  7 26  1  0  0  0  0
  8 27  1  0  0  0  0
  8 28  1  0  0  0  0
  8 29  1  0  0  0  0
 10 30  1  0  0  0  0
 10 31  1  0  0  0  0
 15 32  1  0  0  0  0
 15 33  1  0  0  0  0
 16 34  1  0  0  0  0
 16 35  1  0  0  0  0
 16 36  1  0  0  0  0
 18 37  1  0  0  0  0
 18 38  1  0  0  0  0
 19 39  1  0  0  0  0
 19 40  1  0  0  0  0
 19 41  1  0  0  0  0
M  END
