 xtb: 6.7.1 (edcfbbe)
          04092505213D

 41 40  0     0  0            999 V2000
    1.2308   -1.4885   -2.2221 C   0  0  0  0  0  0  0  0  0  0  0  0
    2.5423   -0.7406   -2.1043 C   0  0  0  0  0  0  0  0  0  0  0  0
    2.5663    0.1551   -0.9679 O   0  0  0  0  0  0  0  0  0  0  0  0
    2.6307   -0.2508    0.5558 P   0  0  0  0  0  0  0  0  0  0  0  0
    3.3649    1.2074    1.6369 S   0  0  0  0  0  0  0  0  0  0  0  0
    3.4669   -1.5994    0.5168 O   0  0  0  0  0  0  0  0  0  0  0  0
    4.1429   -2.1288    1.6739 C   0  0  0  0  0  0  0  0  0  0  0  0
    3.1786   -2.5535    2.7616 C   0  0  0  0  0  0  0  0  0  0  0  0
    0.6736   -0.8582    1.1492 S   0  0  0  0  0  0  0  0  0  0  0  0
    0.0131    0.8068    1.3576 C   0  0  0  0  0  0  0  0  0  0  0  0
   -0.2424    1.6555   -0.2349 S   0  0  0  0  0  0  0  0  0  0  0  0
   -2.1518    0.8698   -0.6914 P   0  0  0  0  0  0  0  0  0  0  0  0
   -2.5998    0.9392   -2.5970 S   0  0  0  0  0  0  0  0  0  0  0  0
   -2.9872    1.7348    0.3471 O   0  0  0  0  0  0  0  0  0  0  0  0
   -4.3360    1.4108    0.7510 C   0  0  0  0  0  0  0  0  0  0  0  0
   -5.3445    1.7116   -0.3390 C   0  0  0  0  0  0  0  0  0  0  0  0
   -2.2311   -0.5776   -0.0355 O   0  0  0  0  0  0  0  0  0  0  0  0
   -2.2283   -1.8139   -0.7734 C   0  0  0  0  0  0  0  0  0  0  0  0
   -3.5583   -2.5141   -0.5753 C   0  0  0  0  0  0  0  0  0  0  0  0
    1.1105   -2.1781   -1.3897 H   0  0  0  0  0  0  0  0  0  0  0  0
    0.3983   -0.7860   -2.2309 H   0  0  0  0  0  0  0  0  0  0  0  0
    1.2246   -2.0483   -3.1520 H   0  0  0  0  0  0  0  0  0  0  0  0
    2.6958   -0.0696   -2.9510 H   0  0  0  0  0  0  0  0  0  0  0  0
    3.3820   -1.4324   -2.0165 H   0  0  0  0  0  0  0  0  0  0  0  0
    4.7039   -2.9764    1.2776 H   0  0  0  0  0  0  0  0  0  0  0  0
    4.8327   -1.3662    2.0476 H   0  0  0  0  0  0  0  0  0  0  0  0
    3.7291   -3.0622    3.5465 H   0  0  0  0  0  0  0  0  0  0  0  0
    2.6879   -1.6793    3.1861 H   0  0  0  0  0  0  0  0  0  0  0  0
    2.4215   -3.2215    2.3591 H   0  0  0  0  0  0  0  0  0  0  0  0
    0.7351    1.4070    1.9128 H   0  0  0  0  0  0  0  0  0  0  0  0
   -0.9314    0.7267    1.8877 H   0  0  0  0  0  0  0  0  0  0  0  0
   -4.3705    0.3572    1.0380 H   0  0  0  0  0  0  0  0  0  0  0  0
   -4.4993    2.0403    1.6276 H   0  0  0  0  0  0  0  0  0  0  0  0
   -6.3453    1.5168    0.0336 H   0  0  0  0  0  0  0  0  0  0  0  0
   -5.2704    2.7526   -0.6433 H   0  0  0  0  0  0  0  0  0  0  0  0
   -5.1601    1.0865   -1.2108 H   0  0  0  0  0  0  0  0  0  0  0  0
   -2.0590   -1.5984   -1.8328 H   0  0  0  0  0  0  0  0  0  0  0  0
   -1.4010   -2.4006   -0.3705 H   0  0  0  0  0  0  0  0  0  0  0  0
   -3.7465   -2.6705    0.4831 H   0  0  0  0  0  0  0  0  0  0  0  0
   -4.3627   -1.9159   -0.9975 H   0  0  0  0  0  0  0  0  0  0  0  0
   -3.5311   -3.4744   -1.0796 H   0  0  0  0  0  0  0  0  0  0  0  0
  1  2  1  0  0  0  0
  2  3  1  0  0  0  0
  3  4  2  0  0  0  0
  4  5  2  0  0  0  0
  4  6  2  0  0  0  0
  6  7  1  0  0  0  0
  7  8  1  0  0  0  0
  4  9  1  0  0  0  0
  9 10  1  0  0  0  0
 10 11  1  0  0  0  0
 11 12  1  0  0  0  0
 12 13  2  0  0  0  0
 12 14  2  0  0  0  0
 14 15  1  0  0  0  0
 15 16  1  0  0  0  0
 12 17  2  0  0  0  0
 17 18  1  0  0  0  0
 18 19  1  0  0  0  0
  1 20  1  0  0  0  0
  1 21  1  0  0  0  0
  1 22  1  0  0  0  0
  2 23  1  0  0  0  0
  2 24  1  0  0  0  0
  7 25  1  0  0  0  0
  7 26  1  0  0  0  0
  8 27  1  0  0  0  0
  8 28  1  0  0  0  0
  8 29  1  0  0  0  0
 10 30  1  0  0  0  0
 10 31  1  0  0  0  0
 15 32  1  0  0  0  0
 15 33  1  0  0  0  0
 16 34  1  0  0  0  0
 16 35  1  0  0  0  0
 16 36  1  0  0  0  0
 18 37  1  0  0  0  0
 18 38  1  0  0  0  0
 19 39  1  0  0  0  0
 19 40  1  0  0  0  0
 19 41  1  0  0  0  0
M  END
