 xtb: 6.7.1 (edcfbbe)
          04092507313D

 38 37  0     0  0            999 V2000
    3.9863   -4.3223   -0.6930 C   0  0  0  0  0  0  0  0  0  0  0  0
    2.6052   -3.6992   -0.6576 C   0  0  0  0  0  0  0  0  0  0  0  0
    2.7590   -2.2961   -0.3562 O   0  0  0  0  0  0  0  0  0  0  0  0
    1.6776   -1.5753   -0.2011 C   0  0  0  0  0  0  0  0  0  0  0  0
    0.5491   -2.0205   -0.3141 O   0  0  0  0  0  0  0  0  0  0  0  0
    1.9939   -0.1434    0.1605 C   0  0  0  0  0  0  0  0  0  0  0  0
    1.3029    0.8894   -0.7254 C   0  0  0  0  0  0  0  0  0  0  0  0
    1.9023    1.1812   -1.5874 H   0  0  0  0  0  0  0  0  0  0  0  0
    0.8307    2.1150    0.0335 C   0  0  0  0  0  0  0  0  0  0  0  0
    0.2881    2.0481    1.1165 O   0  0  0  0  0  0  0  0  0  0  0  0
    1.0187    3.2125   -0.6573 O   0  0  0  0  0  0  0  0  0  0  0  0
    0.4174    4.4340   -0.1776 C   0  0  0  0  0  0  0  0  0  0  0  0
   -0.9970    4.5644   -0.7191 C   0  0  0  0  0  0  0  0  0  0  0  0
   -0.2947    0.3430   -1.4543 S   0  0  0  0  0  0  0  0  0  0  0  0
   -1.3699   -0.2309    0.2805 P   0  0  0  0  0  0  0  0  0  0  0  0
   -0.7921   -0.7611    2.0881 S   0  0  0  0  0  0  0  0  0  0  0  0
   -2.2943    1.0778    0.2806 O   0  0  0  0  0  0  0  0  0  0  0  0
   -3.2715    1.3001    1.3025 C   0  0  0  0  0  0  0  0  0  0  0  0
   -2.4140   -1.2764   -0.3325 O   0  0  0  0  0  0  0  0  0  0  0  0
   -2.3006   -2.6949   -0.2196 C   0  0  0  0  0  0  0  0  0  0  0  0
    3.8963   -5.3785   -0.9234 H   0  0  0  0  0  0  0  0  0  0  0  0
    4.5929   -3.8395   -1.4528 H   0  0  0  0  0  0  0  0  0  0  0  0
    4.4724   -4.2062    0.2709 H   0  0  0  0  0  0  0  0  0  0  0  0
    1.9716   -4.1486    0.1132 H   0  0  0  0  0  0  0  0  0  0  0  0
    2.0940   -3.7867   -1.6210 H   0  0  0  0  0  0  0  0  0  0  0  0
    3.0734   -0.0036    0.1283 H   0  0  0  0  0  0  0  0  0  0  0  0
    1.6397   -0.0030    1.1890 H   0  0  0  0  0  0  0  0  0  0  0  0
    0.4194    4.4182    0.9158 H   0  0  0  0  0  0  0  0  0  0  0  0
    1.0666    5.2250   -0.5520 H   0  0  0  0  0  0  0  0  0  0  0  0
   -0.9834    4.5668   -1.8054 H   0  0  0  0  0  0  0  0  0  0  0  0
   -1.6019    3.7246   -0.3811 H   0  0  0  0  0  0  0  0  0  0  0  0
   -1.4389    5.4877   -0.3600 H   0  0  0  0  0  0  0  0  0  0  0  0
   -2.8098    1.1960    2.2861 H   0  0  0  0  0  0  0  0  0  0  0  0
   -4.0881    0.5861    1.1990 H   0  0  0  0  0  0  0  0  0  0  0  0
   -3.6279    2.3164    1.1551 H   0  0  0  0  0  0  0  0  0  0  0  0
   -3.3132   -3.0812   -0.3079 H   0  0  0  0  0  0  0  0  0  0  0  0
   -1.8689   -2.9578    0.7476 H   0  0  0  0  0  0  0  0  0  0  0  0
   -1.6652   -3.0756   -1.0165 H   0  0  0  0  0  0  0  0  0  0  0  0
  1  2  1  0  0  0  0
  2  3  1  0  0  0  0
  3  4  4  0  0  0  0
  4  5  2  0  0  0  0
  4  6  1  0  0  0  0
  6  7  1  0  0  0  0
  7  8  1  0  0  0  0
  7  9  1  0  0  0  0
  9 10  2  0  0  0  0
  9 11  4  0  0  0  0
 11 12  1  0  0  0  0
 12 13  1  0  0  0  0
  7 14  1  0  0  0  0
 14 15  1  0  0  0  0
 15 16  2  0  0  0  0
 15 17  1  0  0  0  0
 17 18  1  0  0  0  0
 15 19  1  0  0  0  0
 19 20  1  0  0  0  0
  1 21  1  0  0  0  0
  1 22  1  0  0  0  0
  1 23  1  0  0  0  0
  2 24  1  0  0  0  0
  2 25  1  0  0  0  0
  6 26  1  0  0  0  0
  6 27  1  0  0  0  0
 12 28  1  0  0  0  0
 12 29  1  0  0  0  0
 13 30  1  0  0  0  0
 13 31  1  0  0  0  0
 13 32  1  0  0  0  0
 18 33  1  0  0  0  0
 18 34  1  0  0  0  0
 18 35  1  0  0  0  0
 20 36  1  0  0  0  0
 20 37  1  0  0  0  0
 20 38  1  0  0  0  0
M  END
