 xtb: 6.7.1 (edcfbbe)
          04092505213D

 41 40  0     0  0            999 V2000
    5.7131   -0.3418   -0.7128 C   0  0  0  0  0  0  0  0  0  0  0  0
    4.5966   -1.1898   -1.2845 C   0  0  0  0  0  0  0  0  0  0  0  0
    3.4408   -1.2103   -0.4215 O   0  0  0  0  0  0  0  0  0  0  0  0
    2.5275    0.0651   -0.1952 P   0  0  0  0  0  0  0  0  0  0  0  0
    2.2785    1.1914   -1.7882 S   0  0  0  0  0  0  0  0  0  0  0  0
    3.2226    0.7733    1.0446 O   0  0  0  0  0  0  0  0  0  0  0  0
    2.9319    2.1271    1.4313 C   0  0  0  0  0  0  0  0  0  0  0  0
    1.5341    2.2670    1.9985 C   0  0  0  0  0  0  0  0  0  0  0  0
    0.8552   -0.9131    0.6206 S   0  0  0  0  0  0  0  0  0  0  0  0
    0.0458   -1.2965   -0.9759 C   0  0  0  0  0  0  0  0  0  0  0  0
   -1.6689   -1.7725   -0.7405 S   0  0  0  0  0  0  0  0  0  0  0  0
   -2.5042    0.1301   -0.2141 P   0  0  0  0  0  0  0  0  0  0  0  0
   -1.3652    1.6735   -0.6114 S   0  0  0  0  0  0  0  0  0  0  0  0
   -2.9622   -0.0140    1.3018 O   0  0  0  0  0  0  0  0  0  0  0  0
   -2.0411    0.0700    2.4056 C   0  0  0  0  0  0  0  0  0  0  0  0
   -2.8572    0.2071    3.6748 C   0  0  0  0  0  0  0  0  0  0  0  0
   -3.8811    0.2182   -0.9665 O   0  0  0  0  0  0  0  0  0  0  0  0
   -5.0938   -0.4850   -0.5920 C   0  0  0  0  0  0  0  0  0  0  0  0
   -4.9348   -1.9885   -0.6529 C   0  0  0  0  0  0  0  0  0  0  0  0
    5.4122    0.7049   -0.6991 H   0  0  0  0  0  0  0  0  0  0  0  0
    5.9405   -0.6558    0.3024 H   0  0  0  0  0  0  0  0  0  0  0  0
    6.5981   -0.4463   -1.3326 H   0  0  0  0  0  0  0  0  0  0  0  0
    4.8824   -2.2397   -1.3608 H   0  0  0  0  0  0  0  0  0  0  0  0
    4.2883   -0.8119   -2.2648 H   0  0  0  0  0  0  0  0  0  0  0  0
    3.6945    2.3546    2.1774 H   0  0  0  0  0  0  0  0  0  0  0  0
    3.0571    2.7743    0.5571 H   0  0  0  0  0  0  0  0  0  0  0  0
    0.7951    2.1161    1.2109 H   0  0  0  0  0  0  0  0  0  0  0  0
    1.3723    1.5323    2.7837 H   0  0  0  0  0  0  0  0  0  0  0  0
    1.4071    3.2657    2.4036 H   0  0  0  0  0  0  0  0  0  0  0  0
    0.5429   -2.1459   -1.4385 H   0  0  0  0  0  0  0  0  0  0  0  0
    0.1009   -0.4059   -1.6074 H   0  0  0  0  0  0  0  0  0  0  0  0
   -1.4270   -0.8354    2.4163 H   0  0  0  0  0  0  0  0  0  0  0  0
   -1.3891    0.9351    2.2498 H   0  0  0  0  0  0  0  0  0  0  0  0
   -2.1843    0.2655    4.5237 H   0  0  0  0  0  0  0  0  0  0  0  0
   -3.4621    1.1085    3.6342 H   0  0  0  0  0  0  0  0  0  0  0  0
   -3.5101   -0.6526    3.7925 H   0  0  0  0  0  0  0  0  0  0  0  0
   -5.3785   -0.1599    0.4099 H   0  0  0  0  0  0  0  0  0  0  0  0
   -5.8206   -0.1259   -1.3221 H   0  0  0  0  0  0  0  0  0  0  0  0
   -4.5906   -2.2956   -1.6370 H   0  0  0  0  0  0  0  0  0  0  0  0
   -4.2111   -2.3235    0.0880 H   0  0  0  0  0  0  0  0  0  0  0  0
   -5.8935   -2.4543   -0.4469 H   0  0  0  0  0  0  0  0  0  0  0  0
  1  2  1  0  0  0  0
  2  3  1  0  0  0  0
  3  4  2  0  0  0  0
  4  5  2  0  0  0  0
  4  6  2  0  0  0  0
  6  7  1  0  0  0  0
  7  8  1  0  0  0  0
  4  9  1  0  0  0  0
  9 10  1  0  0  0  0
 10 11  1  0  0  0  0
 11 12  1  0  0  0  0
 12 13  2  0  0  0  0
 12 14  2  0  0  0  0
 14 15  1  0  0  0  0
 15 16  1  0  0  0  0
 12 17  2  0  0  0  0
 17 18  1  0  0  0  0
 18 19  1  0  0  0  0
  1 20  1  0  0  0  0
  1 21  1  0  0  0  0
  1 22  1  0  0  0  0
  2 23  1  0  0  0  0
  2 24  1  0  0  0  0
  7 25  1  0  0  0  0
  7 26  1  0  0  0  0
  8 27  1  0  0  0  0
  8 28  1  0  0  0  0
  8 29  1  0  0  0  0
 10 30  1  0  0  0  0
 10 31  1  0  0  0  0
 15 32  1  0  0  0  0
 15 33  1  0  0  0  0
 16 34  1  0  0  0  0
 16 35  1  0  0  0  0
 16 36  1  0  0  0  0
 18 37  1  0  0  0  0
 18 38  1  0  0  0  0
 19 39  1  0  0  0  0
 19 40  1  0  0  0  0
 19 41  1  0  0  0  0
M  END
