41
 xtb: 6.7.1 (edcfbbe)
C            5.79874516762581       -1.14331234054162       -1.35497250118278
C            4.40894089020439       -0.88801332695700       -1.87780828890105
O            3.43020473237574       -1.40262059876175       -0.90396133411437
P            2.41158021834573       -0.40904287509878       -0.15171422716994
S            3.15758408072196        1.22770381819691        0.59744155607235
O            1.70728384069824       -1.42657426238207        0.86400562700548
C            2.22379621683442       -1.65086567138571        2.22781124705267
C            1.29021867221086       -1.01222386792666        3.22311724899313
S            0.91924399276708       -0.15289005735730       -1.63632165907486
C            0.09606096008362        1.37899664954580       -1.05048206884388
S           -0.98058789189167        1.23495823236503        0.42813238867615
P           -2.70772683000699        0.33067725416737       -0.42629921048140
S           -3.22680842223020        0.98662496506229       -2.18399767684230
O           -3.76042232176303        0.50863938383614        0.77558767050339
C           -4.72551479217465        1.61646461998556        0.85016007047373
C           -4.10043088099143        2.87997639060214        1.38490507625569
O           -2.47217626327295       -1.25429098291914       -0.45367242178545
C           -1.74469859020610       -2.02900470177964        0.56805048052675
C           -2.48559625528379       -2.12563954812491        1.87876921772479
H            5.97462074806498       -0.58871287045838       -0.42928594575015
H            5.95564220257050       -2.20920839326313       -1.16863129237408
H            6.52705020195322       -0.81251900652514       -2.10187862106678
H            4.21037286239819       -1.43251757323386       -2.80427030369157
H            4.23100732136096        0.17833726364835       -2.04759125220984
H            2.25797621060078       -2.73744465398876        2.33480566409819
H            3.24022285979700       -1.25413639030060        2.30351870493879
H            0.27433688695608       -1.40212950225846        3.10898609825184
H            1.63694277171070       -1.24286376581538        4.23563225732102
H            1.27142799411158        0.07423542654882        3.10173576649597
H           -0.49596957757461        1.74666171546154       -1.89458710439389
H            0.86133766322498        2.11712668787674       -0.79275384258062
H           -5.15773937432625        1.76055119411270       -0.14438923659916
H           -5.49627973224490        1.23389734542055        1.52215357613868
H           -3.61792755412807        2.70117630391213        2.35018337487847
H           -3.36644757972181        3.29458995623043        0.68890685772186
H           -4.89176276961881        3.62292777076055        1.52794400839984
H           -1.63647983462718       -3.00865012594289        0.09812280388830
H           -0.75417090956651       -1.58408769663180        0.69021868930861
H           -2.50334930081092       -1.17166677243987        2.41201760687611
H           -3.51240864835355       -2.47115090552203        1.72768383052994
H           -1.96756552121874       -2.85747549263294        2.50750304001524
