 xtb: 6.7.1 (edcfbbe)
          04092505213D

 41 40  0     0  0            999 V2000
    5.1868    0.9112   -0.0900 C   0  0  0  0  0  0  0  0  0  0  0  0
    3.8834    1.2819   -0.7651 C   0  0  0  0  0  0  0  0  0  0  0  0
    3.0151    0.1383   -0.9098 O   0  0  0  0  0  0  0  0  0  0  0  0
    2.3149   -0.5382    0.3377 P   0  0  0  0  0  0  0  0  0  0  0  0
    1.8967    0.6485    1.8484 S   0  0  0  0  0  0  0  0  0  0  0  0
    3.3296   -1.7026    0.7131 O   0  0  0  0  0  0  0  0  0  0  0  0
    3.2355   -2.4281    1.9499 C   0  0  0  0  0  0  0  0  0  0  0  0
    1.9820   -3.2770    2.0068 C   0  0  0  0  0  0  0  0  0  0  0  0
    0.7465   -1.5554   -0.6641 S   0  0  0  0  0  0  0  0  0  0  0  0
    0.2074   -0.2497   -1.8049 C   0  0  0  0  0  0  0  0  0  0  0  0
   -0.3257    1.2756   -0.9773 S   0  0  0  0  0  0  0  0  0  0  0  0
   -2.3450    0.7510   -0.5863 P   0  0  0  0  0  0  0  0  0  0  0  0
   -3.0085   -0.9091   -1.3999 S   0  0  0  0  0  0  0  0  0  0  0  0
   -3.0487    2.0633   -1.1217 O   0  0  0  0  0  0  0  0  0  0  0  0
   -4.4253    2.0744   -1.5496 C   0  0  0  0  0  0  0  0  0  0  0  0
   -5.3722    1.9456   -0.3751 C   0  0  0  0  0  0  0  0  0  0  0  0
   -2.5428    0.9406    0.9803 O   0  0  0  0  0  0  0  0  0  0  0  0
   -1.8434    0.2499    2.0276 C   0  0  0  0  0  0  0  0  0  0  0  0
   -2.0562   -1.2502    1.9934 C   0  0  0  0  0  0  0  0  0  0  0  0
    5.8518    1.7691   -0.0948 H   0  0  0  0  0  0  0  0  0  0  0  0
    4.9982    0.6150    0.9410 H   0  0  0  0  0  0  0  0  0  0  0  0
    5.6577    0.0829   -0.6128 H   0  0  0  0  0  0  0  0  0  0  0  0
    4.0392    1.6247   -1.7888 H   0  0  0  0  0  0  0  0  0  0  0  0
    3.3527    2.0501   -0.1933 H   0  0  0  0  0  0  0  0  0  0  0  0
    4.1400   -3.0371    1.9690 H   0  0  0  0  0  0  0  0  0  0  0  0
    3.2505   -1.7087    2.7754 H   0  0  0  0  0  0  0  0  0  0  0  0
    1.9311   -3.9367    1.1445 H   0  0  0  0  0  0  0  0  0  0  0  0
    1.9838   -3.8685    2.9166 H   0  0  0  0  0  0  0  0  0  0  0  0
    1.1023   -2.6332    2.0031 H   0  0  0  0  0  0  0  0  0  0  0  0
   -0.6312   -0.6764   -2.3578 H   0  0  0  0  0  0  0  0  0  0  0  0
    1.0284    0.0148   -2.4646 H   0  0  0  0  0  0  0  0  0  0  0  0
   -4.5347    3.0326   -2.0588 H   0  0  0  0  0  0  0  0  0  0  0  0
   -4.5762    1.2544   -2.2593 H   0  0  0  0  0  0  0  0  0  0  0  0
   -5.1701    2.7225    0.3574 H   0  0  0  0  0  0  0  0  0  0  0  0
   -6.3964    2.0312   -0.7241 H   0  0  0  0  0  0  0  0  0  0  0  0
   -5.2370    0.9740    0.0988 H   0  0  0  0  0  0  0  0  0  0  0  0
   -0.7788    0.4973    1.9637 H   0  0  0  0  0  0  0  0  0  0  0  0
   -2.2555    0.6872    2.9390 H   0  0  0  0  0  0  0  0  0  0  0  0
   -1.6006   -1.6848    1.1046 H   0  0  0  0  0  0  0  0  0  0  0  0
   -1.5998   -1.6913    2.8741 H   0  0  0  0  0  0  0  0  0  0  0  0
   -3.1185   -1.4817    1.9856 H   0  0  0  0  0  0  0  0  0  0  0  0
  1  2  1  0  0  0  0
  2  3  1  0  0  0  0
  3  4  2  0  0  0  0
  4  5  2  0  0  0  0
  4  6  2  0  0  0  0
  6  7  1  0  0  0  0
  7  8  1  0  0  0  0
  4  9  1  0  0  0  0
  9 10  1  0  0  0  0
 10 11  1  0  0  0  0
 11 12  1  0  0  0  0
 12 13  2  0  0  0  0
 12 14  2  0  0  0  0
 14 15  1  0  0  0  0
 15 16  1  0  0  0  0
 12 17  2  0  0  0  0
 17 18  1  0  0  0  0
 18 19  1  0  0  0  0
  1 20  1  0  0  0  0
  1 21  1  0  0  0  0
  1 22  1  0  0  0  0
  2 23  1  0  0  0  0
  2 24  1  0  0  0  0
  7 25  1  0  0  0  0
  7 26  1  0  0  0  0
  8 27  1  0  0  0  0
  8 28  1  0  0  0  0
  8 29  1  0  0  0  0
 10 30  1  0  0  0  0
 10 31  1  0  0  0  0
 15 32  1  0  0  0  0
 15 33  1  0  0  0  0
 16 34  1  0  0  0  0
 16 35  1  0  0  0  0
 16 36  1  0  0  0  0
 18 37  1  0  0  0  0
 18 38  1  0  0  0  0
 19 39  1  0  0  0  0
 19 40  1  0  0  0  0
 19 41  1  0  0  0  0
M  END
