 xtb: 6.7.1 (edcfbbe)
          04092514033D

 41 40  0     0  0            999 V2000
    5.6771    0.5236   -0.5366 C   0  0  0  0  0  0  0  0  0  0  0  0
    5.0217   -0.8335   -0.6890 C   0  0  0  0  0  0  0  0  0  0  0  0
    3.8043   -0.9395    0.0818 O   0  0  0  0  0  0  0  0  0  0  0  0
    2.4884   -0.1347   -0.2735 P   0  0  0  0  0  0  0  0  0  0  0  0
    2.1691    0.1282   -2.1940 S   0  0  0  0  0  0  0  0  0  0  0  0
    2.6895    1.1575    0.6358 O   0  0  0  0  0  0  0  0  0  0  0  0
    1.6698    2.1476    0.8421 C   0  0  0  0  0  0  0  0  0  0  0  0
    1.7253    3.2325   -0.2147 C   0  0  0  0  0  0  0  0  0  0  0  0
    1.0399   -1.2461    0.7900 S   0  0  0  0  0  0  0  0  0  0  0  0
   -0.0560   -1.7852   -0.5817 C   0  0  0  0  0  0  0  0  0  0  0  0
   -1.7614   -1.9709   -0.0363 S   0  0  0  0  0  0  0  0  0  0  0  0
   -2.2628    0.0942    0.1861 P   0  0  0  0  0  0  0  0  0  0  0  0
   -1.5219    1.3123   -1.1510 S   0  0  0  0  0  0  0  0  0  0  0  0
   -1.7885    0.4928    1.6384 O   0  0  0  0  0  0  0  0  0  0  0  0
   -2.1783   -0.1989    2.8520 C   0  0  0  0  0  0  0  0  0  0  0  0
   -3.3147    0.5193    3.5519 C   0  0  0  0  0  0  0  0  0  0  0  0
   -3.8470    0.0614    0.3256 O   0  0  0  0  0  0  0  0  0  0  0  0
   -4.7536    0.2304   -0.7804 C   0  0  0  0  0  0  0  0  0  0  0  0
   -4.7491   -0.9457   -1.7354 C   0  0  0  0  0  0  0  0  0  0  0  0
    6.6268    0.5244   -1.0635 H   0  0  0  0  0  0  0  0  0  0  0  0
    5.0359    1.2945   -0.9622 H   0  0  0  0  0  0  0  0  0  0  0  0
    5.8460    0.7478    0.5133 H   0  0  0  0  0  0  0  0  0  0  0  0
    5.6509   -1.6310   -0.2909 H   0  0  0  0  0  0  0  0  0  0  0  0
    4.7867   -1.0318   -1.7394 H   0  0  0  0  0  0  0  0  0  0  0  0
    0.6865    1.6646    0.8481 H   0  0  0  0  0  0  0  0  0  0  0  0
    1.8794    2.5481    1.8357 H   0  0  0  0  0  0  0  0  0  0  0  0
    1.4941    2.8190   -1.1946 H   0  0  0  0  0  0  0  0  0  0  0  0
    0.9882    3.9937    0.0200 H   0  0  0  0  0  0  0  0  0  0  0  0
    2.7148    3.6803   -0.2424 H   0  0  0  0  0  0  0  0  0  0  0  0
    0.2604   -2.7669   -0.9253 H   0  0  0  0  0  0  0  0  0  0  0  0
    0.0027   -1.0458   -1.3856 H   0  0  0  0  0  0  0  0  0  0  0  0
   -2.4544   -1.2261    2.6006 H   0  0  0  0  0  0  0  0  0  0  0  0
   -1.2735   -0.2008    3.4629 H   0  0  0  0  0  0  0  0  0  0  0  0
   -3.0426    1.5525    3.7500 H   0  0  0  0  0  0  0  0  0  0  0  0
   -4.2119    0.5026    2.9392 H   0  0  0  0  0  0  0  0  0  0  0  0
   -3.5163    0.0176    4.4937 H   0  0  0  0  0  0  0  0  0  0  0  0
   -5.7270    0.3480   -0.3010 H   0  0  0  0  0  0  0  0  0  0  0  0
   -4.4858    1.1519   -1.3061 H   0  0  0  0  0  0  0  0  0  0  0  0
   -3.7825   -1.0259   -2.2297 H   0  0  0  0  0  0  0  0  0  0  0  0
   -4.9519   -1.8723   -1.2053 H   0  0  0  0  0  0  0  0  0  0  0  0
   -5.5148   -0.7876   -2.4893 H   0  0  0  0  0  0  0  0  0  0  0  0
  1  2  1  0  0  0  0
  2  3  1  0  0  0  0
  3  4  2  0  0  0  0
  4  5  2  0  0  0  0
  4  6  2  0  0  0  0
  6  7  1  0  0  0  0
  7  8  1  0  0  0  0
  4  9  1  0  0  0  0
  9 10  1  0  0  0  0
 10 11  1  0  0  0  0
 11 12  1  0  0  0  0
 12 13  2  0  0  0  0
 12 14  2  0  0  0  0
 14 15  1  0  0  0  0
 15 16  1  0  0  0  0
 12 17  2  0  0  0  0
 17 18  1  0  0  0  0
 18 19  1  0  0  0  0
  1 20  1  0  0  0  0
  1 21  1  0  0  0  0
  1 22  1  0  0  0  0
  2 23  1  0  0  0  0
  2 24  1  0  0  0  0
  7 25  1  0  0  0  0
  7 26  1  0  0  0  0
  8 27  1  0  0  0  0
  8 28  1  0  0  0  0
  8 29  1  0  0  0  0
 10 30  1  0  0  0  0
 10 31  1  0  0  0  0
 15 32  1  0  0  0  0
 15 33  1  0  0  0  0
 16 34  1  0  0  0  0
 16 35  1  0  0  0  0
 16 36  1  0  0  0  0
 18 37  1  0  0  0  0
 18 38  1  0  0  0  0
 19 39  1  0  0  0  0
 19 40  1  0  0  0  0
 19 41  1  0  0  0  0
M  END
