  32
 
 C          5.0180489880        2.2874641628       -0.3385680636
 C          3.5115457638        2.3159684018       -0.1651126463
 O          2.9485107468        1.1489994556       -0.7987016067
 P          1.8460474346        0.2382360863       -0.1324810054
 S          1.9407798158        0.0773087418        1.8203566534
 O          1.9227512421       -1.0890526903       -0.9832608110
 C          2.8941963893       -2.1153572128       -0.6864800493
 C          2.3018851447       -3.4578080681       -1.0686215284
 O          0.5172705643        0.9145208967       -0.7332997322
 C         -0.7761198763        0.5497598801       -0.4862264323
 C         -1.1126354140       -0.6368876955        0.1549626932
 C         -2.4403875660       -0.9483242215        0.3620617925
 C         -3.4261726743       -0.0688668676       -0.0793183055
 C         -3.0917867394        1.1218379961       -0.7239462794
 C         -1.7649207884        1.4311066820       -0.9257482462
 N         -4.7976994999       -0.3905608550        0.1316323370
 O         -5.6440974930        0.4079969740       -0.2347990871
 O         -5.0695519297       -1.4513651958        0.6698067633
 H          5.4438252516        3.1872598608        0.0931104304
 H          5.4371956428        1.4194850134        0.1643051602
 H          5.2704141605        2.2394760228       -1.3937488552
 H          3.0713085271        3.1889899749       -0.6511266382
 H          3.2367154363        2.3111000197        0.8948679446
 H          3.7937541976       -1.8982024193       -1.2667711176
 H          3.1348287150       -2.0731321786        0.3816049526
 H          3.0447343792       -4.2326983554       -0.9090658306
 H          1.4267769514       -3.6737850099       -0.4615624251
 H          2.0097666528       -3.4489023362       -2.1148404149
 H         -0.3314481864       -1.2994461641        0.4935152110
 H         -2.7282429254       -1.8607548424        0.8601827553
 H         -3.8775470990        1.7831013587       -1.0540002606
 H         -1.4714917603        2.3421878380       -1.4201030525
          32
        -57.62808446
 C          2.7127799433        3.0771645077        0.2854563698
 C          3.6480798111        1.8952527029        0.1308355712
 O          3.0363065494        0.8268989400       -0.6126310153
 P          1.8647425252       -0.0470776252       -0.0172285321
 S          1.9438020473       -0.4039656156        1.9109810406
 O          1.8163728655       -1.2976281105       -0.9845384419
 C          2.5847709053       -2.4856965501       -0.7215373215
 C          4.0735108724       -2.2364894136       -0.8492299587
 O          0.5925034098        0.7821350190       -0.5531373805
 C         -0.7251265815        0.4832387714       -0.3660645949
 C         -1.6448315101        1.4498381177       -0.7775152826
 C         -2.9935636789        1.2159736815       -0.6295688245
 C         -3.4219214879        0.0142607362       -0.0657150356
 C         -2.5064195314       -0.9505368554        0.3480375005
 C         -1.1564085849       -0.7142231711        0.1945510345
 N         -4.8158302635       -0.2301573698        0.0897118220
 O         -5.1697133961       -1.2962524350        0.5666417276
 O         -5.5998739871        0.6365378057       -0.2608226407
 H          1.8582091128        2.7935225179        0.8984901229
 H          3.2383672742        3.8940916619        0.7699529779
 H          2.3563861780        3.4029505405       -0.6879614167
 H          3.9451872746        1.5114652641        1.1122728067
 H          4.5334465232        2.1536665045       -0.4514379041
 H          2.3425128760       -2.8411980742        0.2853632693
 H          2.2289096827       -3.2006314910       -1.4646780906
 H          4.6070629686       -3.1770356016       -0.7537729591
 H          4.2975767435       -1.7883816386       -1.8135371403
 H          4.4036712613       -1.5606895458       -0.0616529362
 H         -1.2818636681        2.3674455807       -1.2096683734
 H         -3.7262182480        1.9441074762       -0.9404023406
 H         -2.8656106807       -1.8695834712        0.7836346308
 H         -0.4310736408       -1.4458240702        0.5149190883
