41
 xtb: 6.7.1 (edcfbbe)
C            5.57871559775772       -1.94832650251650       -1.56244204978674
C            4.30392254875882       -1.28818901954626       -2.01931996263821
O            3.28842309643462       -1.45561541702626       -0.96631301987986
P            2.52334774552959       -0.18670678681730       -0.33702190599069
S            3.61407395558836        1.34145014178647        0.18208607856224
O            1.67302699609124       -0.90437858525088        0.81852805574503
C            2.22444635628739       -1.05990174797388        2.17608395694643
C            1.14806252830460       -1.69479601736707        3.01630228215393
S            1.05270792084674        0.16809810635590       -1.81624880420459
C            0.48850437056431        1.85342825861694       -1.35852258392006
S           -0.36573602531273        2.04123672709645        0.25599852922519
P           -2.09886028154911        0.87127670460862       -0.06239456144690
S           -2.87326184211479        0.94601563242813       -1.84852060968960
O           -3.02641836255678        1.35398547430587        1.16163532263479
C           -3.79574727769618        2.60749631809654        1.08996696249664
C           -5.24070417283671        2.29698355796530        1.38210333954473
O           -1.63731273090495       -0.56821021883895        0.47582657495747
C           -2.43383936113155       -1.76954084926406        0.17193259750708
C           -1.73540345377097       -2.93498247698442        0.82117719913001
H            5.41431498447188       -3.00729461997998       -1.34363103007671
H            6.32515967451482       -1.87296483197178       -2.35965177549505
H            5.97408382294153       -1.45601252482915       -0.66920785006779
H            3.89031742845388       -1.76326440547472       -2.91265389862702
H            4.45140595038626       -0.22199664563281       -2.21672728837800
H            3.12062195204794       -1.68560316364975        2.11441088757044
H            2.49792966734129       -0.06814251490490        2.54753659619355
H            1.51844538177447       -1.80022282288588        4.04083422852045
H            0.25072476366416       -1.06914529740330        3.03598784020730
H            0.88698701605534       -2.68735797099894        2.63987276365063
H           -0.18041148716520        2.16639932176446       -2.16544195727490
H            1.34937804942872        2.52701719879996       -1.31241590883884
H           -3.35686138634943        3.27262928349432        1.83821591367208
H           -3.67350410637226        3.05427467897444        0.09852027955276
H           -5.34872336261450        1.82369226302331        2.36217035820837
H           -5.81232065729255        3.23053984344780        1.38473721680253
H           -5.65937092135608        1.63589560266410        0.61774606768481
H           -3.44451068326061       -1.62496331647894        0.56735154502485
H           -2.48163265492159       -1.87826627243280       -0.91539031678197
H           -1.70171013571808       -2.81986138615257        1.90781940117973
H           -2.28806843650704       -3.85021521102529        0.58718340351227
H           -0.71588729902652       -3.03922670149885        0.43826648832092
