 xtb: 6.7.1 (edcfbbe)
          04092505213D

 41 40  0     0  0            999 V2000
    4.0694   -1.7296    1.2433 C   0  0  0  0  0  0  0  0  0  0  0  0
    4.6685   -0.8889    0.1364 C   0  0  0  0  0  0  0  0  0  0  0  0
    3.7040   -0.5405   -0.8888 O   0  0  0  0  0  0  0  0  0  0  0  0
    2.3787    0.2843   -0.6706 P   0  0  0  0  0  0  0  0  0  0  0  0
    1.7998    1.1177   -2.3456 S   0  0  0  0  0  0  0  0  0  0  0  0
    2.7938    1.2650    0.5080 O   0  0  0  0  0  0  0  0  0  0  0  0
    2.0291    2.4206    0.8921 C   0  0  0  0  0  0  0  0  0  0  0  0
    2.9903    3.4569    1.4373 C   0  0  0  0  0  0  0  0  0  0  0  0
    0.9782   -1.0660    0.1980 S   0  0  0  0  0  0  0  0  0  0  0  0
   -0.1434   -1.2889   -1.2234 C   0  0  0  0  0  0  0  0  0  0  0  0
   -1.8114   -1.7154   -0.7040 S   0  0  0  0  0  0  0  0  0  0  0  0
   -2.3873    0.1316    0.2123 P   0  0  0  0  0  0  0  0  0  0  0  0
   -1.2165    1.6708   -0.0800 S   0  0  0  0  0  0  0  0  0  0  0  0
   -2.6683   -0.2206    1.7404 O   0  0  0  0  0  0  0  0  0  0  0  0
   -1.6412   -0.3782    2.7365 C   0  0  0  0  0  0  0  0  0  0  0  0
   -1.2768   -1.8380    2.9253 C   0  0  0  0  0  0  0  0  0  0  0  0
   -3.8448    0.3951   -0.3095 O   0  0  0  0  0  0  0  0  0  0  0  0
   -4.8954   -0.6102   -0.2728 C   0  0  0  0  0  0  0  0  0  0  0  0
   -5.2627   -1.0198   -1.6844 C   0  0  0  0  0  0  0  0  0  0  0  0
    3.3103   -1.1623    1.7793 H   0  0  0  0  0  0  0  0  0  0  0  0
    3.6115   -2.6274    0.8368 H   0  0  0  0  0  0  0  0  0  0  0  0
    4.8559   -2.0110    1.9367 H   0  0  0  0  0  0  0  0  0  0  0  0
    5.4302   -1.4373   -0.4200 H   0  0  0  0  0  0  0  0  0  0  0  0
    5.0905    0.0365    0.5321 H   0  0  0  0  0  0  0  0  0  0  0  0
    1.4817    2.7963    0.0213 H   0  0  0  0  0  0  0  0  0  0  0  0
    1.3023    2.1114    1.6472 H   0  0  0  0  0  0  0  0  0  0  0  0
    3.6956    3.7537    0.6657 H   0  0  0  0  0  0  0  0  0  0  0  0
    2.4261    4.3261    1.7585 H   0  0  0  0  0  0  0  0  0  0  0  0
    3.5375    3.0484    2.2819 H   0  0  0  0  0  0  0  0  0  0  0  0
    0.2062   -2.1232   -1.8269 H   0  0  0  0  0  0  0  0  0  0  0  0
   -0.1498   -0.3599   -1.7995 H   0  0  0  0  0  0  0  0  0  0  0  0
   -0.7694    0.2158    2.4445 H   0  0  0  0  0  0  0  0  0  0  0  0
   -2.0784    0.0416    3.6444 H   0  0  0  0  0  0  0  0  0  0  0  0
   -0.5987   -1.9253    3.7677 H   0  0  0  0  0  0  0  0  0  0  0  0
   -2.1718   -2.4210    3.1224 H   0  0  0  0  0  0  0  0  0  0  0  0
   -0.7837   -2.2298    2.0385 H   0  0  0  0  0  0  0  0  0  0  0  0
   -4.5538   -1.4651    0.3136 H   0  0  0  0  0  0  0  0  0  0  0  0
   -5.7315   -0.1257    0.2333 H   0  0  0  0  0  0  0  0  0  0  0  0
   -4.4233   -1.5147   -2.1666 H   0  0  0  0  0  0  0  0  0  0  0  0
   -6.1048   -1.7034   -1.6472 H   0  0  0  0  0  0  0  0  0  0  0  0
   -5.5365   -0.1439   -2.2661 H   0  0  0  0  0  0  0  0  0  0  0  0
  1  2  1  0  0  0  0
  2  3  1  0  0  0  0
  3  4  2  0  0  0  0
  4  5  2  0  0  0  0
  4  6  2  0  0  0  0
  6  7  1  0  0  0  0
  7  8  1  0  0  0  0
  4  9  1  0  0  0  0
  9 10  1  0  0  0  0
 10 11  1  0  0  0  0
 11 12  1  0  0  0  0
 12 13  2  0  0  0  0
 12 14  2  0  0  0  0
 14 15  1  0  0  0  0
 15 16  1  0  0  0  0
 12 17  2  0  0  0  0
 17 18  1  0  0  0  0
 18 19  1  0  0  0  0
  1 20  1  0  0  0  0
  1 21  1  0  0  0  0
  1 22  1  0  0  0  0
  2 23  1  0  0  0  0
  2 24  1  0  0  0  0
  7 25  1  0  0  0  0
  7 26  1  0  0  0  0
  8 27  1  0  0  0  0
  8 28  1  0  0  0  0
  8 29  1  0  0  0  0
 10 30  1  0  0  0  0
 10 31  1  0  0  0  0
 15 32  1  0  0  0  0
 15 33  1  0  0  0  0
 16 34  1  0  0  0  0
 16 35  1  0  0  0  0
 16 36  1  0  0  0  0
 18 37  1  0  0  0  0
 18 38  1  0  0  0  0
 19 39  1  0  0  0  0
 19 40  1  0  0  0  0
 19 41  1  0  0  0  0
M  END
