 xtb: 6.7.1 (edcfbbe)
          04092509473D

 38 37  0     0  0            999 V2000
    5.1156   -3.0490   -0.8624 C   0  0  0  0  0  0  0  0  0  0  0  0
    4.5291   -2.0165    0.0880 C   0  0  0  0  0  0  0  0  0  0  0  0
    3.0918   -1.9909   -0.0093 O   0  0  0  0  0  0  0  0  0  0  0  0
    2.5371   -1.2037   -0.9060 C   0  0  0  0  0  0  0  0  0  0  0  0
    3.1447   -0.4775   -1.6638 O   0  0  0  0  0  0  0  0  0  0  0  0
    1.0252   -1.3444   -0.9090 C   0  0  0  0  0  0  0  0  0  0  0  0
    0.4044    0.0272   -1.1361 C   0  0  0  0  0  0  0  0  0  0  0  0
    0.8249    0.4596   -2.0529 H   0  0  0  0  0  0  0  0  0  0  0  0
    0.7713    0.9767   -0.0104 C   0  0  0  0  0  0  0  0  0  0  0  0
    1.7617    0.8195    0.6654 O   0  0  0  0  0  0  0  0  0  0  0  0
   -0.0611    1.9954    0.0854 O   0  0  0  0  0  0  0  0  0  0  0  0
    0.2410    3.0266    1.0496 C   0  0  0  0  0  0  0  0  0  0  0  0
    1.2145    4.0457    0.4808 C   0  0  0  0  0  0  0  0  0  0  0  0
   -1.3840   -0.0422   -1.4516 S   0  0  0  0  0  0  0  0  0  0  0  0
   -2.1798   -0.0404    0.5194 P   0  0  0  0  0  0  0  0  0  0  0  0
   -1.0494   -0.7258    1.9649 S   0  0  0  0  0  0  0  0  0  0  0  0
   -2.7257    1.4072    0.8340 O   0  0  0  0  0  0  0  0  0  0  0  0
   -3.5950    2.1152   -0.0742 C   0  0  0  0  0  0  0  0  0  0  0  0
   -3.5575   -0.8247    0.3035 O   0  0  0  0  0  0  0  0  0  0  0  0
   -3.6068   -2.2341    0.0494 C   0  0  0  0  0  0  0  0  0  0  0  0
    4.9052   -2.7704   -1.8923 H   0  0  0  0  0  0  0  0  0  0  0  0
    6.1904   -3.0958   -0.7219 H   0  0  0  0  0  0  0  0  0  0  0  0
    4.6842   -4.0259   -0.6627 H   0  0  0  0  0  0  0  0  0  0  0  0
    4.9099   -1.0157   -0.1350 H   0  0  0  0  0  0  0  0  0  0  0  0
    4.7280   -2.2728    1.1288 H   0  0  0  0  0  0  0  0  0  0  0  0
    0.7108   -1.7755    0.0424 H   0  0  0  0  0  0  0  0  0  0  0  0
    0.7445   -2.0116   -1.7255 H   0  0  0  0  0  0  0  0  0  0  0  0
   -0.7261    3.4756    1.2756 H   0  0  0  0  0  0  0  0  0  0  0  0
    0.6520    2.5479    1.9433 H   0  0  0  0  0  0  0  0  0  0  0  0
    0.8109    4.4935   -0.4230 H   0  0  0  0  0  0  0  0  0  0  0  0
    1.3833    4.8217    1.2205 H   0  0  0  0  0  0  0  0  0  0  0  0
    2.1649    3.5696    0.2490 H   0  0  0  0  0  0  0  0  0  0  0  0
   -4.5207    1.5604   -0.2118 H   0  0  0  0  0  0  0  0  0  0  0  0
   -3.0928    2.2531   -1.0314 H   0  0  0  0  0  0  0  0  0  0  0  0
   -3.7863    3.0722    0.4038 H   0  0  0  0  0  0  0  0  0  0  0  0
   -3.2078   -2.4491   -0.9415 H   0  0  0  0  0  0  0  0  0  0  0  0
   -4.6594   -2.5019    0.1030 H   0  0  0  0  0  0  0  0  0  0  0  0
   -3.0383   -2.7732    0.8082 H   0  0  0  0  0  0  0  0  0  0  0  0
  1  2  1  0  0  0  0
  2  3  1  0  0  0  0
  3  4  1  0  0  0  0
  4  5  2  0  0  0  0
  4  6  1  0  0  0  0
  6  7  1  0  0  0  0
  7  8  1  0  0  0  0
  7  9  1  0  0  0  0
  9 10  2  0  0  0  0
  9 11  1  0  0  0  0
 11 12  1  0  0  0  0
 12 13  1  0  0  0  0
  7 14  1  0  0  0  0
 14 15  1  0  0  0  0
 15 16  2  0  0  0  0
 15 17  2  0  0  0  0
 17 18  1  0  0  0  0
 15 19  2  0  0  0  0
 19 20  1  0  0  0  0
  1 21  1  0  0  0  0
  1 22  1  0  0  0  0
  1 23  1  0  0  0  0
  2 24  1  0  0  0  0
  2 25  1  0  0  0  0
  6 26  1  0  0  0  0
  6 27  1  0  0  0  0
 12 28  1  0  0  0  0
 12 29  1  0  0  0  0
 13 30  1  0  0  0  0
 13 31  1  0  0  0  0
 13 32  1  0  0  0  0
 18 33  1  0  0  0  0
 18 34  1  0  0  0  0
 18 35  1  0  0  0  0
 20 36  1  0  0  0  0
 20 37  1  0  0  0  0
 20 38  1  0  0  0  0
M  END
