 xtb: 6.7.1 (edcfbbe)
          04032520153D

  9  8  0     0  0            999 V2000
    0.9817    0.8042    0.0875 C   0  0  0  0  0  0  0  0  0  0  0  0
   -0.3437    0.0448    0.0007 C   0  0  0  0  0  0  0  0  0  0  0  0
   -1.3995    0.8646    0.1534 F   0  0  0  0  0  0  0  0  0  0  0  0
   -0.4566   -0.8970    0.9571 F   0  0  0  0  0  0  0  0  0  0  0  0
   -0.5182   -0.5882   -1.1689 F   0  0  0  0  0  0  0  0  0  0  0  0
    2.0769   -0.0426   -0.0609 O   0  0  0  0  0  0  0  0  0  0  0  0
    1.0072    1.5148   -0.7424 H   0  0  0  0  0  0  0  0  0  0  0  0
    0.9825    1.3475    1.0395 H   0  0  0  0  0  0  0  0  0  0  0  0
    2.1942   -0.6043    0.7208 H   0  0  0  0  0  0  0  0  0  0  0  0
  1  2  1  0  0  0  0
  2  3  1  0  0  0  0
  2  4  1  0  0  0  0
  2  5  1  0  0  0  0
  1  6  1  0  0  0  0
  1  7  1  0  0  0  0
  1  8  1  0  0  0  0
  6  9  1  0  0  0  0
M  END
