 xtb: 6.7.1 (edcfbbe)
          04092505203D

 41 40  0     0  0            999 V2000
    3.6533   -1.4384   -2.6884 C   0  0  0  0  0  0  0  0  0  0  0  0
    4.0877   -0.1840   -1.9584 C   0  0  0  0  0  0  0  0  0  0  0  0
    3.6907   -0.2009   -0.5767 O   0  0  0  0  0  0  0  0  0  0  0  0
    2.1686   -0.1269   -0.1282 P   0  0  0  0  0  0  0  0  0  0  0  0
    1.0941    1.1145   -1.2077 S   0  0  0  0  0  0  0  0  0  0  0  0
    2.2786    0.1965    1.4178 O   0  0  0  0  0  0  0  0  0  0  0  0
    2.3459    1.5387    1.9373 C   0  0  0  0  0  0  0  0  0  0  0  0
    3.6089    2.2525    1.5065 C   0  0  0  0  0  0  0  0  0  0  0  0
    1.6429   -2.1656    0.0172 S   0  0  0  0  0  0  0  0  0  0  0  0
   -0.0563   -2.0279    0.6243 C   0  0  0  0  0  0  0  0  0  0  0  0
   -1.2389   -1.5401   -0.6824 S   0  0  0  0  0  0  0  0  0  0  0  0
   -2.2198   -0.0004    0.3631 P   0  0  0  0  0  0  0  0  0  0  0  0
   -1.1734    1.0544    1.6531 S   0  0  0  0  0  0  0  0  0  0  0  0
   -3.3736   -0.8550    1.0307 O   0  0  0  0  0  0  0  0  0  0  0  0
   -4.1414   -0.3859    2.1575 C   0  0  0  0  0  0  0  0  0  0  0  0
   -5.0667    0.7501    1.7758 C   0  0  0  0  0  0  0  0  0  0  0  0
   -3.0193    0.8249   -0.7267 O   0  0  0  0  0  0  0  0  0  0  0  0
   -2.4458    1.8067   -1.6094 C   0  0  0  0  0  0  0  0  0  0  0  0
   -2.1253    1.1952   -2.9581 C   0  0  0  0  0  0  0  0  0  0  0  0
    3.9968   -2.3226   -2.1573 H   0  0  0  0  0  0  0  0  0  0  0  0
    2.5661   -1.4718   -2.7544 H   0  0  0  0  0  0  0  0  0  0  0  0
    4.0670   -1.4335   -3.6916 H   0  0  0  0  0  0  0  0  0  0  0  0
    3.6566    0.7043   -2.4318 H   0  0  0  0  0  0  0  0  0  0  0  0
    5.1740   -0.0946   -1.9177 H   0  0  0  0  0  0  0  0  0  0  0  0
    1.4543    2.0834    1.6097 H   0  0  0  0  0  0  0  0  0  0  0  0
    2.3032    1.3986    3.0183 H   0  0  0  0  0  0  0  0  0  0  0  0
    3.5921    2.4195    0.4301 H   0  0  0  0  0  0  0  0  0  0  0  0
    3.6673    3.2117    2.0113 H   0  0  0  0  0  0  0  0  0  0  0  0
    4.4810    1.6542    1.7573 H   0  0  0  0  0  0  0  0  0  0  0  0
   -0.0965   -1.2874    1.4267 H   0  0  0  0  0  0  0  0  0  0  0  0
   -0.3259   -3.0181    0.9810 H   0  0  0  0  0  0  0  0  0  0  0  0
   -4.6940   -1.2690    2.4804 H   0  0  0  0  0  0  0  0  0  0  0  0
   -3.4465   -0.0710    2.9430 H   0  0  0  0  0  0  0  0  0  0  0  0
   -5.7001    0.9987    2.6216 H   0  0  0  0  0  0  0  0  0  0  0  0
   -4.4819    1.6269    1.5008 H   0  0  0  0  0  0  0  0  0  0  0  0
   -5.6850    0.4617    0.9300 H   0  0  0  0  0  0  0  0  0  0  0  0
   -3.2129    2.5785   -1.6968 H   0  0  0  0  0  0  0  0  0  0  0  0
   -1.5488    2.2325   -1.1491 H   0  0  0  0  0  0  0  0  0  0  0  0
   -3.0044    0.7009   -3.3613 H   0  0  0  0  0  0  0  0  0  0  0  0
   -1.8046    1.9805   -3.6348 H   0  0  0  0  0  0  0  0  0  0  0  0
   -1.3212    0.4690   -2.8627 H   0  0  0  0  0  0  0  0  0  0  0  0
  1  2  1  0  0  0  0
  2  3  1  0  0  0  0
  3  4  2  0  0  0  0
  4  5  2  0  0  0  0
  4  6  2  0  0  0  0
  6  7  1  0  0  0  0
  7  8  1  0  0  0  0
  4  9  1  0  0  0  0
  9 10  1  0  0  0  0
 10 11  1  0  0  0  0
 11 12  1  0  0  0  0
 12 13  2  0  0  0  0
 12 14  2  0  0  0  0
 14 15  1  0  0  0  0
 15 16  1  0  0  0  0
 12 17  2  0  0  0  0
 17 18  1  0  0  0  0
 18 19  1  0  0  0  0
  1 20  1  0  0  0  0
  1 21  1  0  0  0  0
  1 22  1  0  0  0  0
  2 23  1  0  0  0  0
  2 24  1  0  0  0  0
  7 25  1  0  0  0  0
  7 26  1  0  0  0  0
  8 27  1  0  0  0  0
  8 28  1  0  0  0  0
  8 29  1  0  0  0  0
 10 30  1  0  0  0  0
 10 31  1  0  0  0  0
 15 32  1  0  0  0  0
 15 33  1  0  0  0  0
 16 34  1  0  0  0  0
 16 35  1  0  0  0  0
 16 36  1  0  0  0  0
 18 37  1  0  0  0  0
 18 38  1  0  0  0  0
 19 39  1  0  0  0  0
 19 40  1  0  0  0  0
 19 41  1  0  0  0  0
M  END
