 xtb: 6.7.1 (edcfbbe)
          04092505203D

 41 40  0     0  0            999 V2000
    5.4403    0.1025    0.6752 C   0  0  0  0  0  0  0  0  0  0  0  0
    4.3721   -0.9430    0.4298 C   0  0  0  0  0  0  0  0  0  0  0  0
    3.6387   -0.6619   -0.7889 O   0  0  0  0  0  0  0  0  0  0  0  0
    2.2784    0.1311   -0.8382 P   0  0  0  0  0  0  0  0  0  0  0  0
    1.6164    0.2436   -2.6740 S   0  0  0  0  0  0  0  0  0  0  0  0
    2.6672    1.5048   -0.1367 O   0  0  0  0  0  0  0  0  0  0  0  0
    1.7881    2.6413   -0.0579 C   0  0  0  0  0  0  0  0  0  0  0  0
    1.1311    2.7252    1.3059 C   0  0  0  0  0  0  0  0  0  0  0  0
    1.0323   -0.8626    0.5756 S   0  0  0  0  0  0  0  0  0  0  0  0
   -0.0578   -1.7572   -0.5803 C   0  0  0  0  0  0  0  0  0  0  0  0
   -1.7142   -1.9670    0.0967 S   0  0  0  0  0  0  0  0  0  0  0  0
   -2.2067    0.0976    0.3270 P   0  0  0  0  0  0  0  0  0  0  0  0
   -1.5278    1.3410   -1.0228 S   0  0  0  0  0  0  0  0  0  0  0  0
   -1.7407    0.4917    1.7792 O   0  0  0  0  0  0  0  0  0  0  0  0
   -2.1431   -0.2443    2.9668 C   0  0  0  0  0  0  0  0  0  0  0  0
   -0.9309   -0.8892    3.6072 C   0  0  0  0  0  0  0  0  0  0  0  0
   -3.7892    0.0651    0.4984 O   0  0  0  0  0  0  0  0  0  0  0  0
   -4.7024    0.1346   -0.6099 C   0  0  0  0  0  0  0  0  0  0  0  0
   -4.6051   -1.0742   -1.5182 C   0  0  0  0  0  0  0  0  0  0  0  0
    6.0144   -0.1772    1.5531 H   0  0  0  0  0  0  0  0  0  0  0  0
    6.1036    0.1645   -0.1832 H   0  0  0  0  0  0  0  0  0  0  0  0
    4.9871    1.0766    0.8366 H   0  0  0  0  0  0  0  0  0  0  0  0
    3.6656   -0.9940    1.2634 H   0  0  0  0  0  0  0  0  0  0  0  0
    4.8119   -1.9268    0.2565 H   0  0  0  0  0  0  0  0  0  0  0  0
    2.4331    3.5035   -0.2389 H   0  0  0  0  0  0  0  0  0  0  0  0
    1.0404    2.5790   -0.8553 H   0  0  0  0  0  0  0  0  0  0  0  0
    0.4350    1.9014    1.4496 H   0  0  0  0  0  0  0  0  0  0  0  0
    1.8856    2.6946    2.0867 H   0  0  0  0  0  0  0  0  0  0  0  0
    0.5788    3.6572    1.3716 H   0  0  0  0  0  0  0  0  0  0  0  0
    0.3333   -2.7574   -0.7497 H   0  0  0  0  0  0  0  0  0  0  0  0
   -0.1016   -1.1860   -1.5123 H   0  0  0  0  0  0  0  0  0  0  0  0
   -2.5936    0.5012    3.6233 H   0  0  0  0  0  0  0  0  0  0  0  0
   -2.8915   -0.9894    2.6886 H   0  0  0  0  0  0  0  0  0  0  0  0
   -0.1801   -0.1367    3.8296 H   0  0  0  0  0  0  0  0  0  0  0  0
   -1.2357   -1.3773    4.5272 H   0  0  0  0  0  0  0  0  0  0  0  0
   -0.4924   -1.6264    2.9385 H   0  0  0  0  0  0  0  0  0  0  0  0
   -5.6814    0.2021   -0.1331 H   0  0  0  0  0  0  0  0  0  0  0  0
   -4.4968    1.0528   -1.1688 H   0  0  0  0  0  0  0  0  0  0  0  0
   -3.6488   -1.0739   -2.0398 H   0  0  0  0  0  0  0  0  0  0  0  0
   -4.6907   -1.9914   -0.9409 H   0  0  0  0  0  0  0  0  0  0  0  0
   -5.4025   -1.0339   -2.2533 H   0  0  0  0  0  0  0  0  0  0  0  0
  1  2  1  0  0  0  0
  2  3  1  0  0  0  0
  3  4  2  0  0  0  0
  4  5  2  0  0  0  0
  4  6  2  0  0  0  0
  6  7  1  0  0  0  0
  7  8  1  0  0  0  0
  4  9  1  0  0  0  0
  9 10  1  0  0  0  0
 10 11  1  0  0  0  0
 11 12  1  0  0  0  0
 12 13  2  0  0  0  0
 12 14  2  0  0  0  0
 14 15  1  0  0  0  0
 15 16  1  0  0  0  0
 12 17  2  0  0  0  0
 17 18  1  0  0  0  0
 18 19  1  0  0  0  0
  1 20  1  0  0  0  0
  1 21  1  0  0  0  0
  1 22  1  0  0  0  0
  2 23  1  0  0  0  0
  2 24  1  0  0  0  0
  7 25  1  0  0  0  0
  7 26  1  0  0  0  0
  8 27  1  0  0  0  0
  8 28  1  0  0  0  0
  8 29  1  0  0  0  0
 10 30  1  0  0  0  0
 10 31  1  0  0  0  0
 15 32  1  0  0  0  0
 15 33  1  0  0  0  0
 16 34  1  0  0  0  0
 16 35  1  0  0  0  0
 16 36  1  0  0  0  0
 18 37  1  0  0  0  0
 18 38  1  0  0  0  0
 19 39  1  0  0  0  0
 19 40  1  0  0  0  0
 19 41  1  0  0  0  0
M  END
