 xtb: 6.7.1 (edcfbbe)
          04092507313D

 38 37  0     0  0            999 V2000
    1.7840   -4.3353   -1.3064 C   0  0  0  0  0  0  0  0  0  0  0  0
    2.9184   -3.6067   -0.6036 C   0  0  0  0  0  0  0  0  0  0  0  0
    2.4483   -2.3782   -0.0149 O   0  0  0  0  0  0  0  0  0  0  0  0
    2.5056   -1.2773   -0.7350 C   0  0  0  0  0  0  0  0  0  0  0  0
    2.9437   -1.2068   -1.8611 O   0  0  0  0  0  0  0  0  0  0  0  0
    1.9506   -0.0862    0.0255 C   0  0  0  0  0  0  0  0  0  0  0  0
    0.9313    0.6351   -0.8544 C   0  0  0  0  0  0  0  0  0  0  0  0
    1.3973    0.8784   -1.8144 H   0  0  0  0  0  0  0  0  0  0  0  0
    0.4128    1.9024   -0.2080 C   0  0  0  0  0  0  0  0  0  0  0  0
   -0.7688    2.0814    0.0179 O   0  0  0  0  0  0  0  0  0  0  0  0
    1.3691    2.7372    0.0757 O   0  0  0  0  0  0  0  0  0  0  0  0
    1.0258    3.9874    0.7161 C   0  0  0  0  0  0  0  0  0  0  0  0
    0.6052    5.0259   -0.3100 C   0  0  0  0  0  0  0  0  0  0  0  0
   -0.4944   -0.4241   -1.2721 S   0  0  0  0  0  0  0  0  0  0  0  0
   -1.7141   -0.2182    0.4606 P   0  0  0  0  0  0  0  0  0  0  0  0
   -0.9097    0.0980    2.2309 S   0  0  0  0  0  0  0  0  0  0  0  0
   -3.0476    0.5518    0.0864 O   0  0  0  0  0  0  0  0  0  0  0  0
   -3.4670    1.8061    0.6267 C   0  0  0  0  0  0  0  0  0  0  0  0
   -2.4169   -1.6600    0.4028 O   0  0  0  0  0  0  0  0  0  0  0  0
   -1.6749   -2.8494    0.6767 C   0  0  0  0  0  0  0  0  0  0  0  0
    2.1635   -5.2538   -1.7415 H   0  0  0  0  0  0  0  0  0  0  0  0
    0.9950   -4.5750   -0.5985 H   0  0  0  0  0  0  0  0  0  0  0  0
    1.3743   -3.7116   -2.0983 H   0  0  0  0  0  0  0  0  0  0  0  0
    3.7201   -3.3682   -1.3081 H   0  0  0  0  0  0  0  0  0  0  0  0
    3.3053   -4.1863    0.2347 H   0  0  0  0  0  0  0  0  0  0  0  0
    2.7695    0.6022    0.2440 H   0  0  0  0  0  0  0  0  0  0  0  0
    1.5034   -0.4256    0.9608 H   0  0  0  0  0  0  0  0  0  0  0  0
    0.2267    3.7985    1.4379 H   0  0  0  0  0  0  0  0  0  0  0  0
    1.9408    4.2810    1.2297 H   0  0  0  0  0  0  0  0  0  0  0  0
    0.4137    5.9670    0.1944 H   0  0  0  0  0  0  0  0  0  0  0  0
    1.3928    5.1671   -1.0448 H   0  0  0  0  0  0  0  0  0  0  0  0
   -0.3022    4.7088   -0.8189 H   0  0  0  0  0  0  0  0  0  0  0  0
   -4.5426    1.7261    0.7692 H   0  0  0  0  0  0  0  0  0  0  0  0
   -3.2259    2.5991   -0.0786 H   0  0  0  0  0  0  0  0  0  0  0  0
   -2.9705    1.9972    1.5794 H   0  0  0  0  0  0  0  0  0  0  0  0
   -2.4117   -3.6458    0.7435 H   0  0  0  0  0  0  0  0  0  0  0  0
   -1.1364   -2.7479    1.6215 H   0  0  0  0  0  0  0  0  0  0  0  0
   -0.9702   -3.0472   -0.1319 H   0  0  0  0  0  0  0  0  0  0  0  0
  1  2  1  0  0  0  0
  2  3  1  0  0  0  0
  3  4  1  0  0  0  0
  4  5  2  0  0  0  0
  4  6  1  0  0  0  0
  6  7  1  0  0  0  0
  7  8  1  0  0  0  0
  7  9  1  0  0  0  0
  9 10  2  0  0  0  0
  9 11  4  0  0  0  0
 11 12  1  0  0  0  0
 12 13  1  0  0  0  0
  7 14  1  0  0  0  0
 14 15  1  0  0  0  0
 15 16  2  0  0  0  0
 15 17  2  0  0  0  0
 17 18  1  0  0  0  0
 15 19  1  0  0  0  0
 19 20  1  0  0  0  0
  1 21  1  0  0  0  0
  1 22  1  0  0  0  0
  1 23  1  0  0  0  0
  2 24  1  0  0  0  0
  2 25  1  0  0  0  0
  6 26  1  0  0  0  0
  6 27  1  0  0  0  0
 12 28  1  0  0  0  0
 12 29  1  0  0  0  0
 13 30  1  0  0  0  0
 13 31  1  0  0  0  0
 13 32  1  0  0  0  0
 18 33  1  0  0  0  0
 18 34  1  0  0  0  0
 18 35  1  0  0  0  0
 20 36  1  0  0  0  0
 20 37  1  0  0  0  0
 20 38  1  0  0  0  0
M  END
