 xtb: 6.7.1 (edcfbbe)
          04092505213D

 41 40  0     0  0            999 V2000
    4.0894    1.3950   -1.4650 C   0  0  0  0  0  0  0  0  0  0  0  0
    2.7859    0.8113   -1.9644 C   0  0  0  0  0  0  0  0  0  0  0  0
    2.4312   -0.3904   -1.2518 O   0  0  0  0  0  0  0  0  0  0  0  0
    2.0935   -0.4012    0.2911 P   0  0  0  0  0  0  0  0  0  0  0  0
    1.1619    1.1728    1.0056 S   0  0  0  0  0  0  0  0  0  0  0  0
    3.5113   -0.6947    0.9450 O   0  0  0  0  0  0  0  0  0  0  0  0
    3.7029   -0.7470    2.3744 C   0  0  0  0  0  0  0  0  0  0  0  0
    4.2634    0.5658    2.8867 C   0  0  0  0  0  0  0  0  0  0  0  0
    1.1765   -2.2940    0.4650 S   0  0  0  0  0  0  0  0  0  0  0  0
   -0.4216   -1.9908   -0.3362 C   0  0  0  0  0  0  0  0  0  0  0  0
   -1.5796   -1.0430    0.6999 S   0  0  0  0  0  0  0  0  0  0  0  0
   -2.1368    0.4211   -0.7467 P   0  0  0  0  0  0  0  0  0  0  0  0
   -0.7827    0.9119   -2.0704 S   0  0  0  0  0  0  0  0  0  0  0  0
   -2.8145    1.5927    0.0772 O   0  0  0  0  0  0  0  0  0  0  0  0
   -2.1326    2.5487    0.9124 C   0  0  0  0  0  0  0  0  0  0  0  0
   -2.1724    2.1196    2.3651 C   0  0  0  0  0  0  0  0  0  0  0  0
   -3.3866   -0.1962   -1.4810 O   0  0  0  0  0  0  0  0  0  0  0  0
   -4.5802   -0.6181   -0.7704 C   0  0  0  0  0  0  0  0  0  0  0  0
   -5.1428   -1.8378   -1.4699 C   0  0  0  0  0  0  0  0  0  0  0  0
    4.3639    2.2428   -2.0847 H   0  0  0  0  0  0  0  0  0  0  0  0
    3.9714    1.7311   -0.4354 H   0  0  0  0  0  0  0  0  0  0  0  0
    4.8745    0.6443   -1.5032 H   0  0  0  0  0  0  0  0  0  0  0  0
    2.8511    0.4851   -3.0031 H   0  0  0  0  0  0  0  0  0  0  0  0
    1.9654    1.5293   -1.8642 H   0  0  0  0  0  0  0  0  0  0  0  0
    2.7516   -0.9818    2.8599 H   0  0  0  0  0  0  0  0  0  0  0  0
    4.4033   -1.5692    2.5306 H   0  0  0  0  0  0  0  0  0  0  0  0
    3.5479    1.3686    2.7218 H   0  0  0  0  0  0  0  0  0  0  0  0
    4.4583    0.4795    3.9507 H   0  0  0  0  0  0  0  0  0  0  0  0
    5.1883    0.8046    2.3692 H   0  0  0  0  0  0  0  0  0  0  0  0
   -0.8440   -2.9756   -0.5163 H   0  0  0  0  0  0  0  0  0  0  0  0
   -0.2628   -1.4445   -1.2694 H   0  0  0  0  0  0  0  0  0  0  0  0
   -1.1024    2.6684    0.5661 H   0  0  0  0  0  0  0  0  0  0  0  0
   -2.6794    3.4808    0.7578 H   0  0  0  0  0  0  0  0  0  0  0  0
   -3.1975    1.9361    2.6737 H   0  0  0  0  0  0  0  0  0  0  0  0
   -1.5874    1.2142    2.5090 H   0  0  0  0  0  0  0  0  0  0  0  0
   -1.7446    2.9084    2.9749 H   0  0  0  0  0  0  0  0  0  0  0  0
   -4.3132   -0.8390    0.2672 H   0  0  0  0  0  0  0  0  0  0  0  0
   -5.2789    0.2194   -0.7947 H   0  0  0  0  0  0  0  0  0  0  0  0
   -4.4332   -2.6594   -1.4254 H   0  0  0  0  0  0  0  0  0  0  0  0
   -6.0645   -2.1347   -0.9800 H   0  0  0  0  0  0  0  0  0  0  0  0
   -5.3461   -1.6076   -2.5118 H   0  0  0  0  0  0  0  0  0  0  0  0
  1  2  1  0  0  0  0
  2  3  1  0  0  0  0
  3  4  2  0  0  0  0
  4  5  2  0  0  0  0
  4  6  2  0  0  0  0
  6  7  1  0  0  0  0
  7  8  1  0  0  0  0
  4  9  1  0  0  0  0
  9 10  1  0  0  0  0
 10 11  1  0  0  0  0
 11 12  1  0  0  0  0
 12 13  2  0  0  0  0
 12 14  2  0  0  0  0
 14 15  1  0  0  0  0
 15 16  1  0  0  0  0
 12 17  2  0  0  0  0
 17 18  1  0  0  0  0
 18 19  1  0  0  0  0
  1 20  1  0  0  0  0
  1 21  1  0  0  0  0
  1 22  1  0  0  0  0
  2 23  1  0  0  0  0
  2 24  1  0  0  0  0
  7 25  1  0  0  0  0
  7 26  1  0  0  0  0
  8 27  1  0  0  0  0
  8 28  1  0  0  0  0
  8 29  1  0  0  0  0
 10 30  1  0  0  0  0
 10 31  1  0  0  0  0
 15 32  1  0  0  0  0
 15 33  1  0  0  0  0
 16 34  1  0  0  0  0
 16 35  1  0  0  0  0
 16 36  1  0  0  0  0
 18 37  1  0  0  0  0
 18 38  1  0  0  0  0
 19 39  1  0  0  0  0
 19 40  1  0  0  0  0
 19 41  1  0  0  0  0
M  END
