 xtb: 6.7.1 (edcfbbe)
          04092505203D

 41 40  0     0  0            999 V2000
    4.0579   -1.0397   -2.4594 C   0  0  0  0  0  0  0  0  0  0  0  0
    4.3199   -1.4920   -1.0373 C   0  0  0  0  0  0  0  0  0  0  0  0
    3.1057   -1.6259   -0.2790 O   0  0  0  0  0  0  0  0  0  0  0  0
    2.2180   -0.3755    0.1360 P   0  0  0  0  0  0  0  0  0  0  0  0
    3.2151    1.2359    0.6524 S   0  0  0  0  0  0  0  0  0  0  0  0
    1.2816   -0.9996    1.2505 O   0  0  0  0  0  0  0  0  0  0  0  0
    1.6131   -0.9314    2.6536 C   0  0  0  0  0  0  0  0  0  0  0  0
    2.8292   -1.7697    2.9858 C   0  0  0  0  0  0  0  0  0  0  0  0
    0.8234   -0.1732   -1.4411 S   0  0  0  0  0  0  0  0  0  0  0  0
    0.2034    1.4529   -0.9335 C   0  0  0  0  0  0  0  0  0  0  0  0
   -0.8404    1.3847    0.5413 S   0  0  0  0  0  0  0  0  0  0  0  0
   -2.4813    0.3913   -0.4005 P   0  0  0  0  0  0  0  0  0  0  0  0
   -2.8395    0.9037   -2.2510 S   0  0  0  0  0  0  0  0  0  0  0  0
   -3.6783    0.5851    0.6291 O   0  0  0  0  0  0  0  0  0  0  0  0
   -4.5613    1.7223    0.5918 C   0  0  0  0  0  0  0  0  0  0  0  0
   -3.8474    3.0194    0.9112 C   0  0  0  0  0  0  0  0  0  0  0  0
   -2.1835   -1.1504   -0.2574 O   0  0  0  0  0  0  0  0  0  0  0  0
   -2.0484   -1.8092    1.0271 C   0  0  0  0  0  0  0  0  0  0  0  0
   -1.2990   -3.1060    0.8047 C   0  0  0  0  0  0  0  0  0  0  0  0
    3.6736   -0.0203   -2.4622 H   0  0  0  0  0  0  0  0  0  0  0  0
    4.9849   -1.0674   -3.0232 H   0  0  0  0  0  0  0  0  0  0  0  0
    3.3260   -1.6885   -2.9345 H   0  0  0  0  0  0  0  0  0  0  0  0
    4.9721   -0.7789   -0.5228 H   0  0  0  0  0  0  0  0  0  0  0  0
    4.7602   -2.4894   -1.0061 H   0  0  0  0  0  0  0  0  0  0  0  0
    1.7791    0.1176    2.9184 H   0  0  0  0  0  0  0  0  0  0  0  0
    0.7178   -1.3025    3.1541 H   0  0  0  0  0  0  0  0  0  0  0  0
    3.7114   -1.3486    2.5048 H   0  0  0  0  0  0  0  0  0  0  0  0
    2.9820   -1.7722    4.0605 H   0  0  0  0  0  0  0  0  0  0  0  0
    2.6912   -2.7892    2.6358 H   0  0  0  0  0  0  0  0  0  0  0  0
   -0.3801    1.8388   -1.7696 H   0  0  0  0  0  0  0  0  0  0  0  0
    1.0440    2.1056   -0.6965 H   0  0  0  0  0  0  0  0  0  0  0  0
   -5.0181    1.7694   -0.4012 H   0  0  0  0  0  0  0  0  0  0  0  0
   -5.3189    1.4839    1.3398 H   0  0  0  0  0  0  0  0  0  0  0  0
   -3.2962    2.9304    1.8441 H   0  0  0  0  0  0  0  0  0  0  0  0
   -3.1495    3.2673    0.1129 H   0  0  0  0  0  0  0  0  0  0  0  0
   -4.5780    3.8171    0.9981 H   0  0  0  0  0  0  0  0  0  0  0  0
   -1.5084   -1.1412    1.7049 H   0  0  0  0  0  0  0  0  0  0  0  0
   -3.0532   -1.9831    1.4169 H   0  0  0  0  0  0  0  0  0  0  0  0
   -1.8197   -3.7121    0.0690 H   0  0  0  0  0  0  0  0  0  0  0  0
   -0.2952   -2.9008    0.4409 H   0  0  0  0  0  0  0  0  0  0  0  0
   -1.2381   -3.6488    1.7425 H   0  0  0  0  0  0  0  0  0  0  0  0
  1  2  1  0  0  0  0
  2  3  1  0  0  0  0
  3  4  2  0  0  0  0
  4  5  2  0  0  0  0
  4  6  2  0  0  0  0
  6  7  1  0  0  0  0
  7  8  1  0  0  0  0
  4  9  1  0  0  0  0
  9 10  1  0  0  0  0
 10 11  1  0  0  0  0
 11 12  1  0  0  0  0
 12 13  2  0  0  0  0
 12 14  2  0  0  0  0
 14 15  1  0  0  0  0
 15 16  1  0  0  0  0
 12 17  2  0  0  0  0
 17 18  1  0  0  0  0
 18 19  1  0  0  0  0
  1 20  1  0  0  0  0
  1 21  1  0  0  0  0
  1 22  1  0  0  0  0
  2 23  1  0  0  0  0
  2 24  1  0  0  0  0
  7 25  1  0  0  0  0
  7 26  1  0  0  0  0
  8 27  1  0  0  0  0
  8 28  1  0  0  0  0
  8 29  1  0  0  0  0
 10 30  1  0  0  0  0
 10 31  1  0  0  0  0
 15 32  1  0  0  0  0
 15 33  1  0  0  0  0
 16 34  1  0  0  0  0
 16 35  1  0  0  0  0
 16 36  1  0  0  0  0
 18 37  1  0  0  0  0
 18 38  1  0  0  0  0
 19 39  1  0  0  0  0
 19 40  1  0  0  0  0
 19 41  1  0  0  0  0
M  END
