 xtb: 6.7.1 (edcfbbe)
          04092505213D

 41 40  0     0  0            999 V2000
    5.3831   -0.6913   -1.3683 C   0  0  0  0  0  0  0  0  0  0  0  0
    3.9879   -0.9749   -1.8836 C   0  0  0  0  0  0  0  0  0  0  0  0
    3.0639   -1.2369   -0.8079 O   0  0  0  0  0  0  0  0  0  0  0  0
    2.6048   -0.1008    0.2002 P   0  0  0  0  0  0  0  0  0  0  0  0
    2.4489    1.7004   -0.5774 S   0  0  0  0  0  0  0  0  0  0  0  0
    3.6669   -0.2199    1.3752 O   0  0  0  0  0  0  0  0  0  0  0  0
    3.8446    0.8172    2.3556 C   0  0  0  0  0  0  0  0  0  0  0  0
    2.6108    0.9935    3.2166 C   0  0  0  0  0  0  0  0  0  0  0  0
    0.9082   -1.0778    0.9906 S   0  0  0  0  0  0  0  0  0  0  0  0
   -0.0491   -1.2239   -0.5399 C   0  0  0  0  0  0  0  0  0  0  0  0
   -0.6957    0.3697   -1.1603 S   0  0  0  0  0  0  0  0  0  0  0  0
   -2.7091    0.1489   -0.5617 P   0  0  0  0  0  0  0  0  0  0  0  0
   -3.9048    1.6586   -0.9123 S   0  0  0  0  0  0  0  0  0  0  0  0
   -2.6763   -0.3505    0.9536 O   0  0  0  0  0  0  0  0  0  0  0  0
   -2.8170    0.5574    2.0571 C   0  0  0  0  0  0  0  0  0  0  0  0
   -1.5527    1.3577    2.2945 C   0  0  0  0  0  0  0  0  0  0  0  0
   -3.0335   -1.2041   -1.3293 O   0  0  0  0  0  0  0  0  0  0  0  0
   -4.3885   -1.5977   -1.6322 C   0  0  0  0  0  0  0  0  0  0  0  0
   -5.1671   -1.9582   -0.3846 C   0  0  0  0  0  0  0  0  0  0  0  0
    5.7080   -1.4899   -0.7067 H   0  0  0  0  0  0  0  0  0  0  0  0
    6.0678   -0.6128   -2.2070 H   0  0  0  0  0  0  0  0  0  0  0  0
    5.3889    0.2480   -0.8172 H   0  0  0  0  0  0  0  0  0  0  0  0
    3.9557   -1.8845   -2.4851 H   0  0  0  0  0  0  0  0  0  0  0  0
    3.6114   -0.1273   -2.4659 H   0  0  0  0  0  0  0  0  0  0  0  0
    4.7037    0.4832    2.9386 H   0  0  0  0  0  0  0  0  0  0  0  0
    4.0837    1.7495    1.8341 H   0  0  0  0  0  0  0  0  0  0  0  0
    2.3126    0.0415    3.6489 H   0  0  0  0  0  0  0  0  0  0  0  0
    2.8198    1.7035    4.0103 H   0  0  0  0  0  0  0  0  0  0  0  0
    1.7925    1.3775    2.6076 H   0  0  0  0  0  0  0  0  0  0  0  0
   -0.8836   -1.8850   -0.3252 H   0  0  0  0  0  0  0  0  0  0  0  0
    0.5880   -1.6335   -1.3193 H   0  0  0  0  0  0  0  0  0  0  0  0
   -3.6612    1.2241    1.8514 H   0  0  0  0  0  0  0  0  0  0  0  0
   -3.0467   -0.0882    2.9056 H   0  0  0  0  0  0  0  0  0  0  0  0
   -0.7143    0.6891    2.4737 H   0  0  0  0  0  0  0  0  0  0  0  0
   -1.3337    1.9762    1.4231 H   0  0  0  0  0  0  0  0  0  0  0  0
   -1.6902    2.0030    3.1560 H   0  0  0  0  0  0  0  0  0  0  0  0
   -4.8752   -0.7755   -2.1660 H   0  0  0  0  0  0  0  0  0  0  0  0
   -4.2670   -2.4531   -2.2982 H   0  0  0  0  0  0  0  0  0  0  0  0
   -6.1406   -2.3447   -0.6694 H   0  0  0  0  0  0  0  0  0  0  0  0
   -4.6332   -2.7096    0.1910 H   0  0  0  0  0  0  0  0  0  0  0  0
   -5.3060   -1.0719    0.2327 H   0  0  0  0  0  0  0  0  0  0  0  0
  1  2  1  0  0  0  0
  2  3  1  0  0  0  0
  3  4  2  0  0  0  0
  4  5  2  0  0  0  0
  4  6  2  0  0  0  0
  6  7  1  0  0  0  0
  7  8  1  0  0  0  0
  4  9  1  0  0  0  0
  9 10  1  0  0  0  0
 10 11  1  0  0  0  0
 11 12  1  0  0  0  0
 12 13  2  0  0  0  0
 12 14  2  0  0  0  0
 14 15  1  0  0  0  0
 15 16  1  0  0  0  0
 12 17  2  0  0  0  0
 17 18  1  0  0  0  0
 18 19  1  0  0  0  0
  1 20  1  0  0  0  0
  1 21  1  0  0  0  0
  1 22  1  0  0  0  0
  2 23  1  0  0  0  0
  2 24  1  0  0  0  0
  7 25  1  0  0  0  0
  7 26  1  0  0  0  0
  8 27  1  0  0  0  0
  8 28  1  0  0  0  0
  8 29  1  0  0  0  0
 10 30  1  0  0  0  0
 10 31  1  0  0  0  0
 15 32  1  0  0  0  0
 15 33  1  0  0  0  0
 16 34  1  0  0  0  0
 16 35  1  0  0  0  0
 16 36  1  0  0  0  0
 18 37  1  0  0  0  0
 18 38  1  0  0  0  0
 19 39  1  0  0  0  0
 19 40  1  0  0  0  0
 19 41  1  0  0  0  0
M  END
