41
 xtb: 6.7.1 (edcfbbe)
C            1.19115712898301        1.35224596083622        3.60599738392337
C            2.19296862095342        0.58404272322872        2.78388994324682
O            1.70386487004865        0.59582217002381        1.39494754029064
P            2.44435006764513       -0.26150537838154        0.25776807414202
S            2.83286437106047       -2.12330004948846        0.67911094963000
O            3.69341327066401        0.69045161319719       -0.09270103968458
C            4.94041043216673        0.19248168586652       -0.69258123806796
C            4.79720937763697       -0.04915523659382       -2.17409783174628
S            1.16522332828879        0.08589160636746       -1.39659320618139
C           -0.05063156751012       -1.27297546342300       -1.18088488818716
S           -1.29727673373281       -1.08549583282597        0.15272955314347
P           -2.63031126317051        0.30971717201354       -0.74431486981971
S           -3.00597764051638        0.02617289531148       -2.63335021532217
O           -2.05165820782277        1.78241141846312       -0.48887129118713
C           -1.33779972025995        2.22433677234425        0.72394813516256
C           -2.23618194538951        2.33759378862279        1.93049358333245
O           -3.86571795715970        0.23275559874182        0.28197425334227
C           -5.05157626895734       -0.60948417841118        0.05879956423568
C           -4.80513306349391       -2.04995828692732        0.43007135620154
H            1.52871657538532        1.37301946958676        4.64680703286815
H            1.09968589563206        2.38308763790361        3.25195915787703
H            0.20926778989499        0.87090065524192        3.57130639938082
H            2.27508337502766       -0.45674470342065        3.11153110995969
H            3.18318296399187        1.05049998018514        2.79929547793959
H            5.65753131405680        0.98819296240314       -0.48154628887124
H            5.24092906961732       -0.71174568341929       -0.15524259183163
H            4.44180333751253        0.84970021775445       -2.68636795861100
H            5.78013423850842       -0.31079375715093       -2.57956429484447
H            4.11201882670805       -0.87539779006776       -2.38403855859199
H            0.48552882689123       -2.20254013685545       -0.96575544513991
H           -0.56614109034530       -1.36731798631219       -2.14184538385595
H           -0.50431401181227        1.53885469874781        0.89348105493677
H           -0.94036882861952        3.19789383089280        0.42981875153058
H           -2.55117927817848        1.35899373261298        2.30183173456908
H           -1.67448094500594        2.83891259776596        2.72568847310130
H           -3.12225975496226        2.93905703032413        1.70762863096728
H           -5.80798215624255       -0.15353465753813        0.70063696268704
H           -5.35567890339482       -0.49982135494895       -0.98623665466865
H           -5.75435355746448       -2.59133566365275        0.35916040885327
H           -4.09053506288744       -2.52651184705452       -0.24645139089881
H           -4.43792557589779       -2.13398094412263        1.45716272874355
