 xtb: 6.7.1 (edcfbbe)
          04092505213D

 41 40  0     0  0            999 V2000
    4.3280   -0.7128   -2.9696 C   0  0  0  0  0  0  0  0  0  0  0  0
    4.4150   -0.1499   -1.5644 C   0  0  0  0  0  0  0  0  0  0  0  0
    3.4225   -0.7576   -0.7142 O   0  0  0  0  0  0  0  0  0  0  0  0
    2.0672    0.0186   -0.3468 P   0  0  0  0  0  0  0  0  0  0  0  0
    1.1068    0.6781   -1.9201 S   0  0  0  0  0  0  0  0  0  0  0  0
    2.4907    1.2264    0.5877 O   0  0  0  0  0  0  0  0  0  0  0  0
    2.8006    1.1518    1.9982 C   0  0  0  0  0  0  0  0  0  0  0  0
    3.9324    0.1933    2.3028 C   0  0  0  0  0  0  0  0  0  0  0  0
    1.2153   -1.5191    0.8038 S   0  0  0  0  0  0  0  0  0  0  0  0
   -0.1513   -1.9881   -0.3066 C   0  0  0  0  0  0  0  0  0  0  0  0
   -1.7947   -1.7634    0.4156 S   0  0  0  0  0  0  0  0  0  0  0  0
   -1.9786    0.3562    0.2888 P   0  0  0  0  0  0  0  0  0  0  0  0
   -0.6385    1.3719    1.2987 S   0  0  0  0  0  0  0  0  0  0  0  0
   -3.4697    0.5870    0.7740 O   0  0  0  0  0  0  0  0  0  0  0  0
   -3.8366    0.4260    2.1613 C   0  0  0  0  0  0  0  0  0  0  0  0
   -5.1622    1.1272    2.3762 C   0  0  0  0  0  0  0  0  0  0  0  0
   -2.0273    0.7747   -1.2245 O   0  0  0  0  0  0  0  0  0  0  0  0
   -3.1661    0.6564   -2.1150 C   0  0  0  0  0  0  0  0  0  0  0  0
   -3.5489   -0.7823   -2.3899 C   0  0  0  0  0  0  0  0  0  0  0  0
    3.3705   -0.4541   -3.4167 H   0  0  0  0  0  0  0  0  0  0  0  0
    5.1273   -0.2959   -3.5739 H   0  0  0  0  0  0  0  0  0  0  0  0
    4.4215   -1.7945   -2.9398 H   0  0  0  0  0  0  0  0  0  0  0  0
    4.2742    0.9364   -1.5660 H   0  0  0  0  0  0  0  0  0  0  0  0
    5.3727   -0.3933   -1.0997 H   0  0  0  0  0  0  0  0  0  0  0  0
    3.0604    2.1817    2.2483 H   0  0  0  0  0  0  0  0  0  0  0  0
    1.8854    0.8728    2.5278 H   0  0  0  0  0  0  0  0  0  0  0  0
    4.1431    0.2288    3.3670 H   0  0  0  0  0  0  0  0  0  0  0  0
    3.6518   -0.8238    2.0324 H   0  0  0  0  0  0  0  0  0  0  0  0
    4.8259    0.4747    1.7507 H   0  0  0  0  0  0  0  0  0  0  0  0
   -0.0631   -3.0521   -0.5082 H   0  0  0  0  0  0  0  0  0  0  0  0
   -0.0689   -1.3959   -1.2226 H   0  0  0  0  0  0  0  0  0  0  0  0
   -3.9097   -0.6446    2.3683 H   0  0  0  0  0  0  0  0  0  0  0  0
   -3.0456    0.8594    2.7821 H   0  0  0  0  0  0  0  0  0  0  0  0
   -5.0664    2.1856    2.1497 H   0  0  0  0  0  0  0  0  0  0  0  0
   -5.9214    0.6949    1.7312 H   0  0  0  0  0  0  0  0  0  0  0  0
   -5.4610    1.0092    3.4124 H   0  0  0  0  0  0  0  0  0  0  0  0
   -3.9982    1.2088   -1.6756 H   0  0  0  0  0  0  0  0  0  0  0  0
   -2.8170    1.1592   -3.0186 H   0  0  0  0  0  0  0  0  0  0  0  0
   -4.3307   -0.7964   -3.1430 H   0  0  0  0  0  0  0  0  0  0  0  0
   -2.6908   -1.3381   -2.7601 H   0  0  0  0  0  0  0  0  0  0  0  0
   -3.9189   -1.2598   -1.4855 H   0  0  0  0  0  0  0  0  0  0  0  0
  1  2  1  0  0  0  0
  2  3  1  0  0  0  0
  3  4  1  0  0  0  0
  4  5  2  0  0  0  0
  4  6  2  0  0  0  0
  6  7  1  0  0  0  0
  7  8  1  0  0  0  0
  4  9  1  0  0  0  0
  9 10  1  0  0  0  0
 10 11  1  0  0  0  0
 11 12  1  0  0  0  0
 12 13  2  0  0  0  0
 12 14  2  0  0  0  0
 14 15  1  0  0  0  0
 15 16  1  0  0  0  0
 12 17  2  0  0  0  0
 17 18  1  0  0  0  0
 18 19  1  0  0  0  0
  1 20  1  0  0  0  0
  1 21  1  0  0  0  0
  1 22  1  0  0  0  0
  2 23  1  0  0  0  0
  2 24  1  0  0  0  0
  7 25  1  0  0  0  0
  7 26  1  0  0  0  0
  8 27  1  0  0  0  0
  8 28  1  0  0  0  0
  8 29  1  0  0  0  0
 10 30  1  0  0  0  0
 10 31  1  0  0  0  0
 15 32  1  0  0  0  0
 15 33  1  0  0  0  0
 16 34  1  0  0  0  0
 16 35  1  0  0  0  0
 16 36  1  0  0  0  0
 18 37  1  0  0  0  0
 18 38  1  0  0  0  0
 19 39  1  0  0  0  0
 19 40  1  0  0  0  0
 19 41  1  0  0  0  0
M  END
