 xtb: 6.7.1 (edcfbbe)
          04092505213D

 41 40  0     0  0            999 V2000
    5.7881   -1.2640   -0.5931 C   0  0  0  0  0  0  0  0  0  0  0  0
    4.9111   -0.5977   -1.6326 C   0  0  0  0  0  0  0  0  0  0  0  0
    3.5092   -0.8661   -1.4184 O   0  0  0  0  0  0  0  0  0  0  0  0
    2.7220   -0.3058   -0.1652 P   0  0  0  0  0  0  0  0  0  0  0  0
    3.2104    1.5019    0.4295 S   0  0  0  0  0  0  0  0  0  0  0  0
    2.9636   -1.4512    0.9112 O   0  0  0  0  0  0  0  0  0  0  0  0
    2.7091   -1.2561    2.3132 C   0  0  0  0  0  0  0  0  0  0  0  0
    1.2267   -1.1740    2.6146 C   0  0  0  0  0  0  0  0  0  0  0  0
    0.7609   -0.6011   -0.9203 S   0  0  0  0  0  0  0  0  0  0  0  0
    0.1012    1.0812   -0.7065 C   0  0  0  0  0  0  0  0  0  0  0  0
   -1.1029    1.1988    0.6328 S   0  0  0  0  0  0  0  0  0  0  0  0
   -2.7150    0.3243   -0.4578 P   0  0  0  0  0  0  0  0  0  0  0  0
   -2.9301    0.9997   -2.2803 S   0  0  0  0  0  0  0  0  0  0  0  0
   -3.9739    0.4875    0.4954 O   0  0  0  0  0  0  0  0  0  0  0  0
   -4.7006    1.7260    0.6166 C   0  0  0  0  0  0  0  0  0  0  0  0
   -4.1665    2.5701    1.7571 C   0  0  0  0  0  0  0  0  0  0  0  0
   -2.4504   -1.2261   -0.4374 O   0  0  0  0  0  0  0  0  0  0  0  0
   -2.2565   -1.9978    0.7745 C   0  0  0  0  0  0  0  0  0  0  0  0
   -3.5501   -2.6590    1.2022 C   0  0  0  0  0  0  0  0  0  0  0  0
    5.6195   -0.8109    0.3827 H   0  0  0  0  0  0  0  0  0  0  0  0
    5.5590   -2.3248   -0.5335 H   0  0  0  0  0  0  0  0  0  0  0  0
    6.8304   -1.1331   -0.8670 H   0  0  0  0  0  0  0  0  0  0  0  0
    5.0990   -0.9905   -2.6328 H   0  0  0  0  0  0  0  0  0  0  0  0
    5.0592    0.4870   -1.6259 H   0  0  0  0  0  0  0  0  0  0  0  0
    3.1688   -2.1245    2.7869 H   0  0  0  0  0  0  0  0  0  0  0  0
    3.2183   -0.3417    2.6344 H   0  0  0  0  0  0  0  0  0  0  0  0
    0.7127   -2.0404    2.2058 H   0  0  0  0  0  0  0  0  0  0  0  0
    1.0794   -1.1409    3.6892 H   0  0  0  0  0  0  0  0  0  0  0  0
    0.8049   -0.2693    2.1767 H   0  0  0  0  0  0  0  0  0  0  0  0
   -0.3898    1.3687   -1.6369 H   0  0  0  0  0  0  0  0  0  0  0  0
    0.9213    1.7600   -0.4628 H   0  0  0  0  0  0  0  0  0  0  0  0
   -4.6469    2.2608   -0.3372 H   0  0  0  0  0  0  0  0  0  0  0  0
   -5.7314    1.4184    0.8015 H   0  0  0  0  0  0  0  0  0  0  0  0
   -4.7910    3.4509    1.8670 H   0  0  0  0  0  0  0  0  0  0  0  0
   -4.1832    2.0011    2.6821 H   0  0  0  0  0  0  0  0  0  0  0  0
   -3.1441    2.8828    1.5579 H   0  0  0  0  0  0  0  0  0  0  0  0
   -1.4982   -2.7350    0.5030 H   0  0  0  0  0  0  0  0  0  0  0  0
   -1.8722   -1.3379    1.5572 H   0  0  0  0  0  0  0  0  0  0  0  0
   -4.2920   -1.9058    1.4526 H   0  0  0  0  0  0  0  0  0  0  0  0
   -3.9364   -3.2773    0.3967 H   0  0  0  0  0  0  0  0  0  0  0  0
   -3.3602   -3.2800    2.0721 H   0  0  0  0  0  0  0  0  0  0  0  0
  1  2  1  0  0  0  0
  2  3  1  0  0  0  0
  3  4  2  0  0  0  0
  4  5  2  0  0  0  0
  4  6  2  0  0  0  0
  6  7  1  0  0  0  0
  7  8  1  0  0  0  0
  4  9  1  0  0  0  0
  9 10  1  0  0  0  0
 10 11  1  0  0  0  0
 11 12  1  0  0  0  0
 12 13  2  0  0  0  0
 12 14  2  0  0  0  0
 14 15  1  0  0  0  0
 15 16  1  0  0  0  0
 12 17  2  0  0  0  0
 17 18  1  0  0  0  0
 18 19  1  0  0  0  0
  1 20  1  0  0  0  0
  1 21  1  0  0  0  0
  1 22  1  0  0  0  0
  2 23  1  0  0  0  0
  2 24  1  0  0  0  0
  7 25  1  0  0  0  0
  7 26  1  0  0  0  0
  8 27  1  0  0  0  0
  8 28  1  0  0  0  0
  8 29  1  0  0  0  0
 10 30  1  0  0  0  0
 10 31  1  0  0  0  0
 15 32  1  0  0  0  0
 15 33  1  0  0  0  0
 16 34  1  0  0  0  0
 16 35  1  0  0  0  0
 16 36  1  0  0  0  0
 18 37  1  0  0  0  0
 18 38  1  0  0  0  0
 19 39  1  0  0  0  0
 19 40  1  0  0  0  0
 19 41  1  0  0  0  0
M  END
