 xtb: 6.7.1 (edcfbbe)
          04092507313D

 38 37  0     0  0            999 V2000
    5.3785   -0.3630   -0.3924 C   0  0  0  0  0  0  0  0  0  0  0  0
    4.8393   -1.2171   -1.5284 C   0  0  0  0  0  0  0  0  0  0  0  0
    3.5254   -1.7179   -1.2120 O   0  0  0  0  0  0  0  0  0  0  0  0
    2.4805   -0.9760   -1.5164 C   0  0  0  0  0  0  0  0  0  0  0  0
    2.5323    0.0986   -2.0716 O   0  0  0  0  0  0  0  0  0  0  0  0
    1.1861   -1.6615   -1.1142 C   0  0  0  0  0  0  0  0  0  0  0  0
    0.2127   -0.6249   -0.5730 C   0  0  0  0  0  0  0  0  0  0  0  0
    0.1617    0.2266   -1.2662 H   0  0  0  0  0  0  0  0  0  0  0  0
    0.6162   -0.0608    0.7739 C   0  0  0  0  0  0  0  0  0  0  0  0
   -0.2052    0.2432    1.6161 O   0  0  0  0  0  0  0  0  0  0  0  0
    1.9097    0.0610    0.9043 O   0  0  0  0  0  0  0  0  0  0  0  0
    2.4168    0.7042    2.0953 C   0  0  0  0  0  0  0  0  0  0  0  0
    2.4321    2.2131    1.9201 C   0  0  0  0  0  0  0  0  0  0  0  0
   -1.4694   -1.3034   -0.4035 S   0  0  0  0  0  0  0  0  0  0  0  0
   -2.4572    0.4653    0.2486 P   0  0  0  0  0  0  0  0  0  0  0  0
   -1.6653    2.1832   -0.2581 S   0  0  0  0  0  0  0  0  0  0  0  0
   -3.8990    0.2402   -0.4316 O   0  0  0  0  0  0  0  0  0  0  0  0
   -4.0793    0.3313   -1.8466 C   0  0  0  0  0  0  0  0  0  0  0  0
   -2.8884    0.3424    1.7619 O   0  0  0  0  0  0  0  0  0  0  0  0
   -3.5821   -0.8125    2.2738 C   0  0  0  0  0  0  0  0  0  0  0  0
    6.3826   -0.0318   -0.6360 H   0  0  0  0  0  0  0  0  0  0  0  0
    4.7424    0.5078   -0.2519 H   0  0  0  0  0  0  0  0  0  0  0  0
    5.4037   -0.9392    0.5282 H   0  0  0  0  0  0  0  0  0  0  0  0
    5.4448   -2.1109   -1.6784 H   0  0  0  0  0  0  0  0  0  0  0  0
    4.7778   -0.6366   -2.4532 H   0  0  0  0  0  0  0  0  0  0  0  0
    1.3968   -2.4393   -0.3822 H   0  0  0  0  0  0  0  0  0  0  0  0
    0.7532   -2.1210   -2.0050 H   0  0  0  0  0  0  0  0  0  0  0  0
    1.7856    0.4166    2.9403 H   0  0  0  0  0  0  0  0  0  0  0  0
    3.4233    0.3026    2.2113 H   0  0  0  0  0  0  0  0  0  0  0  0
    1.4179    2.5866    1.7881 H   0  0  0  0  0  0  0  0  0  0  0  0
    2.8665    2.6743    2.8006 H   0  0  0  0  0  0  0  0  0  0  0  0
    3.0159    2.4855    1.0446 H   0  0  0  0  0  0  0  0  0  0  0  0
   -5.1541    0.3696   -2.0040 H   0  0  0  0  0  0  0  0  0  0  0  0
   -3.6499   -0.5449   -2.3322 H   0  0  0  0  0  0  0  0  0  0  0  0
   -3.6064    1.2385   -2.2270 H   0  0  0  0  0  0  0  0  0  0  0  0
   -3.6438   -0.6499    3.3467 H   0  0  0  0  0  0  0  0  0  0  0  0
   -3.0143   -1.7167    2.0533 H   0  0  0  0  0  0  0  0  0  0  0  0
   -4.5740   -0.8746    1.8298 H   0  0  0  0  0  0  0  0  0  0  0  0
  1  2  1  0  0  0  0
  2  3  1  0  0  0  0
  3  4  1  0  0  0  0
  4  5  2  0  0  0  0
  4  6  1  0  0  0  0
  6  7  1  0  0  0  0
  7  8  1  0  0  0  0
  7  9  1  0  0  0  0
  9 10  2  0  0  0  0
  9 11  4  0  0  0  0
 11 12  1  0  0  0  0
 12 13  1  0  0  0  0
  7 14  1  0  0  0  0
 14 15  1  0  0  0  0
 15 16  2  0  0  0  0
 15 17  1  0  0  0  0
 17 18  1  0  0  0  0
 15 19  2  0  0  0  0
 19 20  1  0  0  0  0
  1 21  1  0  0  0  0
  1 22  1  0  0  0  0
  1 23  1  0  0  0  0
  2 24  1  0  0  0  0
  2 25  1  0  0  0  0
  6 26  1  0  0  0  0
  6 27  1  0  0  0  0
 12 28  1  0  0  0  0
 12 29  1  0  0  0  0
 13 30  1  0  0  0  0
 13 31  1  0  0  0  0
 13 32  1  0  0  0  0
 18 33  1  0  0  0  0
 18 34  1  0  0  0  0
 18 35  1  0  0  0  0
 20 36  1  0  0  0  0
 20 37  1  0  0  0  0
 20 38  1  0  0  0  0
M  END
