 xtb: 6.7.1 (edcfbbe)
          04092505203D

 41 40  0     0  0            999 V2000
    3.3978    0.0993   -2.6910 C   0  0  0  0  0  0  0  0  0  0  0  0
    1.9962    0.4807   -2.2673 C   0  0  0  0  0  0  0  0  0  0  0  0
    1.4749   -0.4331   -1.2876 O   0  0  0  0  0  0  0  0  0  0  0  0
    2.0232   -0.4875    0.1994 P   0  0  0  0  0  0  0  0  0  0  0  0
    2.5879    1.2372    0.9532 S   0  0  0  0  0  0  0  0  0  0  0  0
    3.1423   -1.6066    0.0404 O   0  0  0  0  0  0  0  0  0  0  0  0
    3.7069   -2.4027    1.0987 C   0  0  0  0  0  0  0  0  0  0  0  0
    4.2070   -1.5771    2.2657 C   0  0  0  0  0  0  0  0  0  0  0  0
    0.4973   -1.5259    1.2069 S   0  0  0  0  0  0  0  0  0  0  0  0
   -0.4084   -0.1471    1.9922 C   0  0  0  0  0  0  0  0  0  0  0  0
   -2.1451   -0.0921    1.5059 S   0  0  0  0  0  0  0  0  0  0  0  0
   -1.8809    0.6601   -0.4645 P   0  0  0  0  0  0  0  0  0  0  0  0
   -0.5802    2.1124   -0.6571 S   0  0  0  0  0  0  0  0  0  0  0  0
   -3.3491    1.0308   -0.9427 O   0  0  0  0  0  0  0  0  0  0  0  0
   -3.9436    2.3171   -0.7006 C   0  0  0  0  0  0  0  0  0  0  0  0
   -4.2168    2.5588    0.7700 C   0  0  0  0  0  0  0  0  0  0  0  0
   -1.5101   -0.5716   -1.3757 O   0  0  0  0  0  0  0  0  0  0  0  0
   -2.0559   -1.9129   -1.2968 C   0  0  0  0  0  0  0  0  0  0  0  0
   -3.5654   -1.9447   -1.3878 C   0  0  0  0  0  0  0  0  0  0  0  0
    3.7280    0.7646   -3.4826 H   0  0  0  0  0  0  0  0  0  0  0  0
    4.0735    0.1924   -1.8414 H   0  0  0  0  0  0  0  0  0  0  0  0
    3.4159   -0.9283   -3.0441 H   0  0  0  0  0  0  0  0  0  0  0  0
    1.2825    0.4181   -3.0905 H   0  0  0  0  0  0  0  0  0  0  0  0
    1.9736    1.4931   -1.8485 H   0  0  0  0  0  0  0  0  0  0  0  0
    2.9466   -3.1167    1.4274 H   0  0  0  0  0  0  0  0  0  0  0  0
    4.5247   -2.9336    0.6079 H   0  0  0  0  0  0  0  0  0  0  0  0
    4.6959   -2.2290    2.9825 H   0  0  0  0  0  0  0  0  0  0  0  0
    4.9124   -0.8230    1.9248 H   0  0  0  0  0  0  0  0  0  0  0  0
    3.3758   -1.0708    2.7544 H   0  0  0  0  0  0  0  0  0  0  0  0
    0.0888    0.7911    1.7286 H   0  0  0  0  0  0  0  0  0  0  0  0
   -0.3991   -0.3093    3.0668 H   0  0  0  0  0  0  0  0  0  0  0  0
   -3.2761    3.0877   -1.0991 H   0  0  0  0  0  0  0  0  0  0  0  0
   -4.8661    2.2886   -1.2822 H   0  0  0  0  0  0  0  0  0  0  0  0
   -3.2783    2.6649    1.3117 H   0  0  0  0  0  0  0  0  0  0  0  0
   -4.7896    3.4739    0.8809 H   0  0  0  0  0  0  0  0  0  0  0  0
   -4.7758    1.7286    1.1939 H   0  0  0  0  0  0  0  0  0  0  0  0
   -1.5871   -2.4164   -2.1436 H   0  0  0  0  0  0  0  0  0  0  0  0
   -1.7104   -2.3690   -0.3644 H   0  0  0  0  0  0  0  0  0  0  0  0
   -3.9015   -1.4190   -2.2776 H   0  0  0  0  0  0  0  0  0  0  0  0
   -3.8914   -2.9792   -1.4356 H   0  0  0  0  0  0  0  0  0  0  0  0
   -4.0069   -1.4740   -0.5120 H   0  0  0  0  0  0  0  0  0  0  0  0
  1  2  1  0  0  0  0
  2  3  1  0  0  0  0
  3  4  2  0  0  0  0
  4  5  2  0  0  0  0
  4  6  2  0  0  0  0
  6  7  1  0  0  0  0
  7  8  1  0  0  0  0
  4  9  1  0  0  0  0
  9 10  1  0  0  0  0
 10 11  1  0  0  0  0
 11 12  1  0  0  0  0
 12 13  2  0  0  0  0
 12 14  2  0  0  0  0
 14 15  1  0  0  0  0
 15 16  1  0  0  0  0
 12 17  2  0  0  0  0
 17 18  1  0  0  0  0
 18 19  1  0  0  0  0
  1 20  1  0  0  0  0
  1 21  1  0  0  0  0
  1 22  1  0  0  0  0
  2 23  1  0  0  0  0
  2 24  1  0  0  0  0
  7 25  1  0  0  0  0
  7 26  1  0  0  0  0
  8 27  1  0  0  0  0
  8 28  1  0  0  0  0
  8 29  1  0  0  0  0
 10 30  1  0  0  0  0
 10 31  1  0  0  0  0
 15 32  1  0  0  0  0
 15 33  1  0  0  0  0
 16 34  1  0  0  0  0
 16 35  1  0  0  0  0
 16 36  1  0  0  0  0
 18 37  1  0  0  0  0
 18 38  1  0  0  0  0
 19 39  1  0  0  0  0
 19 40  1  0  0  0  0
 19 41  1  0  0  0  0
M  END
