 xtb: 6.7.1 (edcfbbe)
          04092505203D

 41 40  0     0  0            999 V2000
    1.9656   -0.1917    3.4916 C   0  0  0  0  0  0  0  0  0  0  0  0
    1.9237    0.9585    2.5070 C   0  0  0  0  0  0  0  0  0  0  0  0
    1.1972    0.6193    1.3059 O   0  0  0  0  0  0  0  0  0  0  0  0
    1.6447   -0.5095    0.2929 P   0  0  0  0  0  0  0  0  0  0  0  0
    1.1260   -2.3790    0.6220 S   0  0  0  0  0  0  0  0  0  0  0  0
    3.2254   -0.2986    0.3052 O   0  0  0  0  0  0  0  0  0  0  0  0
    4.1055   -1.1801   -0.4173 C   0  0  0  0  0  0  0  0  0  0  0  0
    5.5073   -0.9938    0.1277 C   0  0  0  0  0  0  0  0  0  0  0  0
    1.1168    0.2392   -1.6118 S   0  0  0  0  0  0  0  0  0  0  0  0
   -0.2141   -0.9014   -2.0693 C   0  0  0  0  0  0  0  0  0  0  0  0
   -1.8758   -0.1588   -2.1367 S   0  0  0  0  0  0  0  0  0  0  0  0
   -2.0370    0.6562   -0.1854 P   0  0  0  0  0  0  0  0  0  0  0  0
   -3.8333    1.1987    0.3657 S   0  0  0  0  0  0  0  0  0  0  0  0
   -0.9391    1.7995   -0.0869 O   0  0  0  0  0  0  0  0  0  0  0  0
   -1.2215    3.1565   -0.4735 C   0  0  0  0  0  0  0  0  0  0  0  0
   -1.3414    3.3098   -1.9772 C   0  0  0  0  0  0  0  0  0  0  0  0
   -1.2989   -0.4071    0.7421 O   0  0  0  0  0  0  0  0  0  0  0  0
   -2.0644   -1.3676    1.4960 C   0  0  0  0  0  0  0  0  0  0  0  0
   -2.6577   -2.4461    0.6121 C   0  0  0  0  0  0  0  0  0  0  0  0
    0.9566   -0.5074    3.7474 H   0  0  0  0  0  0  0  0  0  0  0  0
    2.4928   -1.0393    3.0547 H   0  0  0  0  0  0  0  0  0  0  0  0
    2.4828    0.1216    4.3931 H   0  0  0  0  0  0  0  0  0  0  0  0
    2.9314    1.2721    2.2265 H   0  0  0  0  0  0  0  0  0  0  0  0
    1.3662    1.8071    2.9074 H   0  0  0  0  0  0  0  0  0  0  0  0
    3.7560   -2.2094   -0.2819 H   0  0  0  0  0  0  0  0  0  0  0  0
    4.0516   -0.9211   -1.4779 H   0  0  0  0  0  0  0  0  0  0  0  0
    6.1887   -1.6344   -0.4223 H   0  0  0  0  0  0  0  0  0  0  0  0
    5.8159    0.0413    0.0131 H   0  0  0  0  0  0  0  0  0  0  0  0
    5.5407   -1.2578    1.1811 H   0  0  0  0  0  0  0  0  0  0  0  0
   -0.2020   -1.7392   -1.3670 H   0  0  0  0  0  0  0  0  0  0  0  0
   -0.0268   -1.2406   -3.0850 H   0  0  0  0  0  0  0  0  0  0  0  0
   -2.1441    3.4730    0.0245 H   0  0  0  0  0  0  0  0  0  0  0  0
   -0.3746    3.7204   -0.0794 H   0  0  0  0  0  0  0  0  0  0  0  0
   -1.4344    4.3632   -2.2213 H   0  0  0  0  0  0  0  0  0  0  0  0
   -0.4612    2.9016   -2.4692 H   0  0  0  0  0  0  0  0  0  0  0  0
   -2.2246    2.7840   -2.3387 H   0  0  0  0  0  0  0  0  0  0  0  0
   -1.3448   -1.7868    2.2013 H   0  0  0  0  0  0  0  0  0  0  0  0
   -2.8515   -0.8323    2.0356 H   0  0  0  0  0  0  0  0  0  0  0  0
   -3.3337   -2.0007   -0.1176 H   0  0  0  0  0  0  0  0  0  0  0  0
   -1.8696   -2.9870    0.0931 H   0  0  0  0  0  0  0  0  0  0  0  0
   -3.2146   -3.1429    1.2302 H   0  0  0  0  0  0  0  0  0  0  0  0
  1  2  1  0  0  0  0
  2  3  1  0  0  0  0
  3  4  2  0  0  0  0
  4  5  2  0  0  0  0
  4  6  2  0  0  0  0
  6  7  1  0  0  0  0
  7  8  1  0  0  0  0
  4  9  1  0  0  0  0
  9 10  1  0  0  0  0
 10 11  1  0  0  0  0
 11 12  1  0  0  0  0
 12 13  2  0  0  0  0
 12 14  2  0  0  0  0
 14 15  1  0  0  0  0
 15 16  1  0  0  0  0
 12 17  1  0  0  0  0
 17 18  1  0  0  0  0
 18 19  1  0  0  0  0
  1 20  1  0  0  0  0
  1 21  1  0  0  0  0
  1 22  1  0  0  0  0
  2 23  1  0  0  0  0
  2 24  1  0  0  0  0
  7 25  1  0  0  0  0
  7 26  1  0  0  0  0
  8 27  1  0  0  0  0
  8 28  1  0  0  0  0
  8 29  1  0  0  0  0
 10 30  1  0  0  0  0
 10 31  1  0  0  0  0
 15 32  1  0  0  0  0
 15 33  1  0  0  0  0
 16 34  1  0  0  0  0
 16 35  1  0  0  0  0
 16 36  1  0  0  0  0
 18 37  1  0  0  0  0
 18 38  1  0  0  0  0
 19 39  1  0  0  0  0
 19 40  1  0  0  0  0
 19 41  1  0  0  0  0
M  END
