 xtb: 6.7.1 (edcfbbe)
          04092507313D

 38 37  0     0  0            999 V2000
    3.3409   -1.8213    1.4079 C   0  0  0  0  0  0  0  0  0  0  0  0
    3.0059   -2.3882    0.0384 C   0  0  0  0  0  0  0  0  0  0  0  0
    2.7142   -1.3196   -0.8828 O   0  0  0  0  0  0  0  0  0  0  0  0
    1.4722   -1.0733   -1.2298 C   0  0  0  0  0  0  0  0  0  0  0  0
    0.5047   -1.7044   -0.8445 O   0  0  0  0  0  0  0  0  0  0  0  0
    1.3793    0.0989   -2.1828 C   0  0  0  0  0  0  0  0  0  0  0  0
    0.3081    1.0867   -1.7237 C   0  0  0  0  0  0  0  0  0  0  0  0
    0.2321    1.9065   -2.4442 H   0  0  0  0  0  0  0  0  0  0  0  0
    0.5822    1.6747   -0.3519 C   0  0  0  0  0  0  0  0  0  0  0  0
   -0.3100    1.8642    0.4535 O   0  0  0  0  0  0  0  0  0  0  0  0
    1.8458    1.9234   -0.1529 O   0  0  0  0  0  0  0  0  0  0  0  0
    2.2450    2.4631    1.1266 C   0  0  0  0  0  0  0  0  0  0  0  0
    2.0374    3.9671    1.1737 C   0  0  0  0  0  0  0  0  0  0  0  0
   -1.3695    0.3657   -1.6731 S   0  0  0  0  0  0  0  0  0  0  0  0
   -1.5341   -0.3671    0.3105 P   0  0  0  0  0  0  0  0  0  0  0  0
   -0.2832   -0.7308    1.7774 S   0  0  0  0  0  0  0  0  0  0  0  0
   -2.7099    0.5000    0.9791 O   0  0  0  0  0  0  0  0  0  0  0  0
   -3.8372    0.9787    0.2337 C   0  0  0  0  0  0  0  0  0  0  0  0
   -2.3050   -1.6944   -0.1990 O   0  0  0  0  0  0  0  0  0  0  0  0
   -2.6770   -2.7188    0.7215 C   0  0  0  0  0  0  0  0  0  0  0  0
    2.4674   -1.3301    1.8340 H   0  0  0  0  0  0  0  0  0  0  0  0
    3.6398   -2.6301    2.0660 H   0  0  0  0  0  0  0  0  0  0  0  0
    4.1521   -1.1039    1.3263 H   0  0  0  0  0  0  0  0  0  0  0  0
    2.1398   -3.0532    0.0925 H   0  0  0  0  0  0  0  0  0  0  0  0
    3.8609   -2.9092   -0.3953 H   0  0  0  0  0  0  0  0  0  0  0  0
    1.0998   -0.2831   -3.1662 H   0  0  0  0  0  0  0  0  0  0  0  0
    2.3494    0.5921   -2.2338 H   0  0  0  0  0  0  0  0  0  0  0  0
    1.6693    1.9596    1.9090 H   0  0  0  0  0  0  0  0  0  0  0  0
    3.2998    2.2007    1.2035 H   0  0  0  0  0  0  0  0  0  0  0  0
    0.9779    4.2023    1.1007 H   0  0  0  0  0  0  0  0  0  0  0  0
    2.4156    4.3472    2.1167 H   0  0  0  0  0  0  0  0  0  0  0  0
    2.5677    4.4447    0.3547 H   0  0  0  0  0  0  0  0  0  0  0  0
   -4.6338    1.1125    0.9619 H   0  0  0  0  0  0  0  0  0  0  0  0
   -4.1296    0.2562   -0.5301 H   0  0  0  0  0  0  0  0  0  0  0  0
   -3.5815    1.9295   -0.2327 H   0  0  0  0  0  0  0  0  0  0  0  0
   -1.7855   -3.1393    1.1894 H   0  0  0  0  0  0  0  0  0  0  0  0
   -3.1886   -3.4720    0.1278 H   0  0  0  0  0  0  0  0  0  0  0  0
   -3.3365   -2.3200    1.4951 H   0  0  0  0  0  0  0  0  0  0  0  0
  1  2  1  0  0  0  0
  2  3  1  0  0  0  0
  3  4  4  0  0  0  0
  4  5  2  0  0  0  0
  4  6  1  0  0  0  0
  6  7  1  0  0  0  0
  7  8  1  0  0  0  0
  7  9  1  0  0  0  0
  9 10  2  0  0  0  0
  9 11  4  0  0  0  0
 11 12  1  0  0  0  0
 12 13  1  0  0  0  0
  7 14  1  0  0  0  0
 14 15  1  0  0  0  0
 15 16  2  0  0  0  0
 15 17  1  0  0  0  0
 17 18  1  0  0  0  0
 15 19  1  0  0  0  0
 19 20  1  0  0  0  0
  1 21  1  0  0  0  0
  1 22  1  0  0  0  0
  1 23  1  0  0  0  0
  2 24  1  0  0  0  0
  2 25  1  0  0  0  0
  6 26  1  0  0  0  0
  6 27  1  0  0  0  0
 12 28  1  0  0  0  0
 12 29  1  0  0  0  0
 13 30  1  0  0  0  0
 13 31  1  0  0  0  0
 13 32  1  0  0  0  0
 18 33  1  0  0  0  0
 18 34  1  0  0  0  0
 18 35  1  0  0  0  0
 20 36  1  0  0  0  0
 20 37  1  0  0  0  0
 20 38  1  0  0  0  0
M  END
