  34
 
 C          3.4405486830        4.3202037766       -0.1711060861
 C          2.6240355178        3.0488766814       -0.0454962605
 O          3.2277804317        2.0465549960       -0.8958103353
 P          2.8928191722        0.5251714178       -0.7511687927
 O          3.6534898389       -0.3256173892       -1.6726548031
 O          3.0775656223        0.1722655571        0.7912833790
 C          3.8437333349       -0.9667058365        1.2152209696
 C          2.9353163910       -2.0245036636        1.8150920420
 O          1.2938942927        0.5563617129       -0.9635215675
 C          0.4675542686       -0.5425066127       -0.8779749559
 C          0.8985973188       -1.7626524278       -1.1907641416
 Cl        -0.0947736087       -3.1511157691       -1.0600477432
 C         -0.8979606802       -0.2084068242       -0.4244873607
 C         -2.0087668914       -0.5826333370       -1.1788971538
 C         -3.2897207333       -0.2631443514       -0.7725218789
 C         -3.4684643081        0.4441745240        0.4072761824
 C         -2.3862494982        0.8310860046        1.1810229728
 C         -1.1090112906        0.5028838121        0.7578857037
 Cl         0.2348249114        0.9542540523        1.7470727411
 Cl        -5.0635801172        0.8528540926        0.9301109960
 H          2.9883294739        5.0978176231        0.4359731495
 H          4.4584762521        4.1447191993        0.1646475242
 H          3.4672069233        4.6404268027       -1.2085520037
 H          1.5954923763        3.2008080553       -0.3802090545
 H          2.6179588696        2.6783262878        0.9819854229
 H          4.3941869733       -1.3547992522        0.3541651676
 H          4.5470457467       -0.5886274452        1.9598560687
 H          3.5392015740       -2.8492443413        2.1793544885
 H          2.3675066219       -1.6037921516        2.6406858891
 H          2.2386810166       -2.3958516153        1.0672059084
 H          1.9029805528       -1.9477408195       -1.5345178607
 H         -1.8578008857       -1.1204682368       -2.1004130518
 H         -4.1401964608       -0.5561917051       -1.3649708508
 H         -2.5278250918        1.3742345746        2.1003101589
          34
        -65.44225012
 C          5.5179390504        0.2525375955        0.1619731846
 C          4.6148945092       -0.9276634913       -0.1441608161
 O          3.3724837125       -0.5105268291       -0.7292812625
 P          2.2775893933        0.1776686451        0.2134324410
 O          2.2228080699       -0.3658138603        1.5743165738
 O          2.5275039402        1.7322901194        0.1744041144
 C          2.6909377182        2.4408878729       -1.0736835606
 C          1.3728025545        3.0126552318       -1.5611993300
 O          0.9764315047       -0.0235072406       -0.7057231612
 C          0.0570921478       -1.0145711396       -0.4219102386
 C          0.4696917819       -2.2698910773       -0.2597219823
 Cl        -0.5818314346       -3.5557162630        0.1309758667
 C         -1.3291389549       -0.5270465446       -0.3196437200
 C         -2.3605894992       -1.1409394562       -1.0297657465
 C         -3.6586159422       -0.6765524371       -0.9479813746
 C         -3.9332278797        0.4216596322       -0.1464813670
 C         -2.9313260682        1.0540048109        0.5727132356
 C         -1.6341638887        0.5767462049        0.4821816527
 Cl        -0.3836619505        1.3390941626        1.4269843484
 Cl        -5.5494409787        1.0164962701       -0.0311502878
 H          6.4570218433       -0.1076605748        0.5705762142
 H          5.7142561264        0.8242430755       -0.7413629318
 H          5.0341330136        0.8975489276        0.8941640083
 H          4.3937693179       -1.4819788635        0.7727734756
 H          5.0578266856       -1.5923376158       -0.8879370102
 H          3.4026618911        3.2363577466       -0.8429192221
 H          3.1173593256        1.7584701883       -1.8123119024
 H          1.5521427003        3.6137516891       -2.4471914985
 H          0.6796958215        2.2119398895       -1.8050560710
 H          0.9284142633        3.6354906961       -0.7893627337
 H          1.5120227934       -2.5363610458       -0.3333723650
 H         -2.1321748439       -1.9849046811       -1.6593990332
 H         -4.4478754459       -1.1575119443       -1.5010926053
 H         -3.1483098887        1.9013997793        1.2002669245
