38
 xtb: 6.7.1 (edcfbbe)
C            5.22864094378368       -0.43387142426708       -1.85311967955499
C            4.59043461237540       -1.31008213389858       -0.80687963089442
O            3.14097614065054       -1.22985539456817       -1.00407685827048
C            2.38449165999398       -1.94442185903724       -0.16120459488955
O            2.83672648586871       -2.67449673437323        0.70398508899324
C            0.91069201735011       -1.80194453893660       -0.45329371023154
C            0.48595076424853       -0.38693619826071       -0.83326223001900
H            1.02412227509176       -0.06032615526450       -1.73249847070349
C            0.84380045034211        0.62222331977215        0.24897995186112
O            1.62492522782290        0.36136932059650        1.14483219536766
O            0.26368394336071        1.80213864581887        0.05582009686940
C            0.53617007798149        2.85451812940763        1.04215635243503
C            1.82159781427766        3.57427110038727        0.71341158680494
S           -1.28433462537595       -0.33168550632428       -1.39619243501434
P           -2.41364885623160       -0.06002788183520        0.38248764058822
S           -1.71271423346329       -0.86471813848346        2.00309950323491
O           -2.68810878015288        1.50543153437435        0.59546819049716
C           -3.07481046267365        2.37919005713086       -0.50635353509743
O           -3.85440181260453       -0.54732946343207       -0.15425296424188
C           -4.13921984952043       -1.96846015792104       -0.29744769189461
H            6.31544472005264       -0.47501339602523       -1.73511288631072
H            4.97953933563599       -0.77972848344275       -2.86044288548775
H            4.90986637729082        0.60671056101096       -1.74339282251888
H            4.81280817743976       -0.96858755038977        0.20847059602224
H            4.89207792480371       -2.35659397848038       -0.90649473913231
H            0.35894776942322       -2.15240516045513        0.42021756797315
H            0.68921060271310       -2.47446442101098       -1.28979002296736
H           -0.33064298841662        3.51279384748954        0.95848981950689
H            0.55285445724918        2.39866779785739        2.03515017413088
H            2.68331870431513        2.90569210180606        0.78374645373530
H            1.77995566690226        4.00133643850469       -0.29227790486126
H            1.96040563912500        4.39168333212171        1.42791143300543
H           -2.24646156929558        2.47546604943548       -1.21228935617923
H           -3.29099244253887        3.34343585478861       -0.04621337341721
H           -3.96603309394520        1.99346540990406       -1.00724254425315
H           -3.42426778617645       -2.43638945488969       -0.98047397916828
H           -5.14487007503486       -2.02349360947055       -0.71390002429686
H           -4.10591737638192       -2.45390994604050        0.68127986563157
