  25
 
 C          2.5258396528        3.9361617472        0.0054875453
 C          2.1507560005        2.4648948639        0.0005731044
 N          0.7090585111        2.3123765902        0.0019004006
 C          0.1080786769        1.1322008645        0.0009885296
 N          0.8522934888        0.0269728891       -0.0000185326
 C          0.1842957765       -1.1259588584       -0.0011464483
 N         -1.1736809606       -1.2210037697       -0.0015956809
 C         -1.7761880789       -0.0617740432       -0.0001840483
 N         -1.2532725153        1.1354075371        0.0012478834
 Cl        -3.5048854942       -0.1200565274       -0.0004639911
 N          0.8638015429       -2.2626674193       -0.0019370390
 C          2.3125786065       -2.3170978102       -0.0002321159
 C          2.7862950129       -3.7596397203       -0.0038158418
 H          3.6066949455        4.0358016412        0.0010549291
 H          2.1294989086        4.4341744223       -0.8751726401
 H          2.1373677638        4.4264076191        0.8939607365
 H          2.5559909367        1.9559600540        0.8801021440
 H          2.5538415190        1.9625426310       -0.8837653198
 H          0.1233420598        3.1330179157        0.0027402087
 H          0.3356353258       -3.1214648384       -0.0027022645
 H          2.6826453419       -1.7826437902       -0.8801196825
 H          2.6805035472       -1.7878570545        0.8837397492
 H          3.8714070488       -3.7860581104        0.0006863031
 H          2.4244609332       -4.2824877853        0.8773079340
 H          2.4318746411       -4.2758128346       -0.8918536139
          25
        -40.36496489
 C          2.6106888475        3.3026604043        0.7594889542
 C          2.2015561952        2.4381621545       -0.4284345867
 N          0.7683806640        2.2514898638       -0.4782244171
 C          0.1456886189        1.1089456563       -0.2216609239
 N          0.8494399990        0.0000717454       -0.0003548005
 C          0.1459729458       -1.1089821856        0.2214546434
 N         -1.2145738208       -1.1560471244        0.2278437304
 C         -1.7790552418       -0.0003008652       -0.0000332971
 N         -1.2149484694        1.1555768434       -0.2278720654
 Cl        -3.5080110578       -0.0005331319        0.0000584666
 N          0.7693203068       -2.2510663869        0.4785056802
 C          2.2025873707       -2.4370713447        0.4282130820
 C          2.6118807452       -3.3021970328       -0.7591613782
 H          3.6897588640        3.4189917216        0.7713676430
 H          2.1547111722        4.2868706769        0.6918163881
 H          2.2985987739        2.8371442771        1.6906197536
 H          2.6487741741        1.4474484032       -0.3547546980
 H          2.5195985429        2.9107456500       -1.3609946293
 H          0.1792010669        3.0632781544       -0.5907584549
 H          0.1807793278       -3.0632634148        0.5913576299
 H          2.6493493401       -1.4462011736        0.3537557871
 H          2.5211764715       -2.9089092193        1.3609490482
 H          2.3000931793       -2.8370688013       -1.6905301144
 H          3.6909303224       -3.4188827217       -0.7707709087
 H          2.1555913024       -4.2862474557       -0.6911073241
