 xtb: 6.7.1 (edcfbbe)
          04092505213D

 41 40  0     0  0            999 V2000
    4.9830    1.2434   -1.0226 C   0  0  0  0  0  0  0  0  0  0  0  0
    4.5206   -0.1921   -1.1561 C   0  0  0  0  0  0  0  0  0  0  0  0
    3.6852   -0.6155   -0.0620 O   0  0  0  0  0  0  0  0  0  0  0  0
    2.3748    0.1321    0.4362 P   0  0  0  0  0  0  0  0  0  0  0  0
    2.5761    1.7411    1.5258 S   0  0  0  0  0  0  0  0  0  0  0  0
    1.6604   -0.9893    1.2836 O   0  0  0  0  0  0  0  0  0  0  0  0
    1.4385   -2.3417    0.8190 C   0  0  0  0  0  0  0  0  0  0  0  0
    2.5015   -3.2725    1.3631 C   0  0  0  0  0  0  0  0  0  0  0  0
    1.2624    0.3650   -1.3714 S   0  0  0  0  0  0  0  0  0  0  0  0
    0.1088    1.6071   -0.7345 C   0  0  0  0  0  0  0  0  0  0  0  0
   -0.9184    1.0337    0.6434 S   0  0  0  0  0  0  0  0  0  0  0  0
   -2.2647   -0.1814   -0.5029 P   0  0  0  0  0  0  0  0  0  0  0  0
   -1.5003   -1.8240   -1.2432 S   0  0  0  0  0  0  0  0  0  0  0  0
   -2.8765    0.7440   -1.6202 O   0  0  0  0  0  0  0  0  0  0  0  0
   -3.9864    1.6646   -1.4514 C   0  0  0  0  0  0  0  0  0  0  0  0
   -3.6565    2.8212   -0.5319 C   0  0  0  0  0  0  0  0  0  0  0  0
   -3.4734   -0.3993    0.5011 O   0  0  0  0  0  0  0  0  0  0  0  0
   -3.3754   -1.3402    1.5894 C   0  0  0  0  0  0  0  0  0  0  0  0
   -4.7777   -1.6178    2.0913 C   0  0  0  0  0  0  0  0  0  0  0  0
    5.6784    1.4733   -1.8234 H   0  0  0  0  0  0  0  0  0  0  0  0
    4.1319    1.9200   -1.0848 H   0  0  0  0  0  0  0  0  0  0  0  0
    5.4721    1.3965   -0.0635 H   0  0  0  0  0  0  0  0  0  0  0  0
    5.3618   -0.8867   -1.1196 H   0  0  0  0  0  0  0  0  0  0  0  0
    3.9623   -0.3350   -2.0857 H   0  0  0  0  0  0  0  0  0  0  0  0
    0.4467   -2.6052    1.1930 H   0  0  0  0  0  0  0  0  0  0  0  0
    1.4160   -2.3515   -0.2747 H   0  0  0  0  0  0  0  0  0  0  0  0
    3.4800   -2.9866    0.9868 H   0  0  0  0  0  0  0  0  0  0  0  0
    2.5152   -3.2240    2.4484 H   0  0  0  0  0  0  0  0  0  0  0  0
    2.2762   -4.2868    1.0492 H   0  0  0  0  0  0  0  0  0  0  0  0
   -0.5204    1.8986   -1.5726 H   0  0  0  0  0  0  0  0  0  0  0  0
    0.6776    2.4508   -0.3434 H   0  0  0  0  0  0  0  0  0  0  0  0
   -4.1803    2.0027   -2.4706 H   0  0  0  0  0  0  0  0  0  0  0  0
   -4.8411    1.1004   -1.0763 H   0  0  0  0  0  0  0  0  0  0  0  0
   -4.5003    3.5042   -0.5135 H   0  0  0  0  0  0  0  0  0  0  0  0
   -3.4703    2.4642    0.4784 H   0  0  0  0  0  0  0  0  0  0  0  0
   -2.7774    3.3560   -0.8830 H   0  0  0  0  0  0  0  0  0  0  0  0
   -2.8932   -2.2510    1.2185 H   0  0  0  0  0  0  0  0  0  0  0  0
   -2.7506   -0.8954    2.3690 H   0  0  0  0  0  0  0  0  0  0  0  0
   -5.2433   -0.6954    2.4261 H   0  0  0  0  0  0  0  0  0  0  0  0
   -5.3793   -2.0507    1.2971 H   0  0  0  0  0  0  0  0  0  0  0  0
   -4.7259   -2.3149    2.9210 H   0  0  0  0  0  0  0  0  0  0  0  0
  1  2  1  0  0  0  0
  2  3  1  0  0  0  0
  3  4  2  0  0  0  0
  4  5  2  0  0  0  0
  4  6  2  0  0  0  0
  6  7  1  0  0  0  0
  7  8  1  0  0  0  0
  4  9  1  0  0  0  0
  9 10  1  0  0  0  0
 10 11  1  0  0  0  0
 11 12  1  0  0  0  0
 12 13  2  0  0  0  0
 12 14  2  0  0  0  0
 14 15  1  0  0  0  0
 15 16  1  0  0  0  0
 12 17  2  0  0  0  0
 17 18  1  0  0  0  0
 18 19  1  0  0  0  0
  1 20  1  0  0  0  0
  1 21  1  0  0  0  0
  1 22  1  0  0  0  0
  2 23  1  0  0  0  0
  2 24  1  0  0  0  0
  7 25  1  0  0  0  0
  7 26  1  0  0  0  0
  8 27  1  0  0  0  0
  8 28  1  0  0  0  0
  8 29  1  0  0  0  0
 10 30  1  0  0  0  0
 10 31  1  0  0  0  0
 15 32  1  0  0  0  0
 15 33  1  0  0  0  0
 16 34  1  0  0  0  0
 16 35  1  0  0  0  0
 16 36  1  0  0  0  0
 18 37  1  0  0  0  0
 18 38  1  0  0  0  0
 19 39  1  0  0  0  0
 19 40  1  0  0  0  0
 19 41  1  0  0  0  0
M  END
