10
CONF2
C -1.8480230022 -0.7741868777 0.3332923938
S -0.8174699381 0.6371466650 -0.2312812919
S 0.9922952547 0.3080949235 0.7248622863
C 1.8372102584 -0.8856267217 -0.3857184752
H -1.4056889067 -1.7221862516 0.0193744225
H -2.8227324007 -0.6546193884 -0.1516977843
H -1.9753796814 -0.7476667219 1.4172907386
H 2.8101499291 -1.0933517992 0.0724171216
H 1.9868154152 -0.4497234188 -1.3754962769
H 1.2680836448 -1.8152314600 -0.4549127563
10
CONF1
C -1.8184748008 -0.8403779469 0.4542287916
S -0.9365180821 0.5011978341 -0.4369855276
S 0.9387122592 0.4930294124 0.4481428242
C 1.8206792344 -0.8382862479 -0.4579537263
H -2.8289444047 -0.8741435098 0.0334928213
H -1.8765646013 -0.6188278615 1.5217088043
H -1.3280704642 -1.8015921123 0.2858964595
H 2.8309264415 -0.8783333298 -0.0372184243
H 1.8791829544 -0.6040208273 -1.5227010843
H 1.3288010871 -1.8006569989 -0.3011754959
