41
 xtb: 6.7.1 (edcfbbe)
C            3.06443439967669       -2.11548378288439       -2.55545256254306
C            1.95803558233490       -1.39157395453609       -1.83085541972223
O            2.52666921906299       -0.25538766239297       -1.08037544296876
P            2.64086136544148       -0.26376103334653        0.51835341652190
S            3.58318423005035        1.31332915355162        1.15322818100751
O            3.26441700533444       -1.71314411484316        0.81850298184069
C            4.11092785678255       -2.00647729104048        1.98602135387518
C            3.29387691068110       -2.23178123470176        3.23264544390197
S            0.67495509554005       -0.54254325835936        1.28452279114074
C            0.01053442176901        1.15439342435866        1.07924278948612
S           -0.43643359236258        1.66528548248758       -0.64070634847742
P           -2.44565584535944        1.05211929355289       -0.76126005341412
S           -3.14666037711465        1.40748913256589       -2.54168120227363
O           -3.12443445687848        1.79946185094247        0.48498321207695
C           -4.58091106088101        2.01987410352248        0.55870711842650
C           -5.33530015175004        0.74825444529310        0.85532701347723
O           -2.50208781768724       -0.47421608573523       -0.24110541403731
C           -2.02120494323194       -1.55917051149781       -1.10642006405501
C           -2.15371404521610       -2.84350465625497       -0.33126288556213
H            3.59906163977395       -1.43765651542010       -3.22666969582998
H            3.77535650510833       -2.55745917565478       -1.85203554120192
H            2.62593706201456       -2.91925051657650       -3.15594003481132
H            1.41728499673007       -2.05185458107789       -1.14621071851669
H            1.24293835594734       -0.94125545748511       -2.52317189280051
H            4.64896117861372       -2.90829536072776        1.68760942181775
H            4.82465536549685       -1.18609463496008        2.10429720512911
H            2.79287449862850       -1.31586294910312        3.55839359843094
H            2.54589274594176       -3.01442068304843        3.07641363585930
H            3.96723478256155       -2.55396374522161        4.03364025288143
H            0.75733424152172        1.87456070268490        1.42751338647111
H           -0.86698158312033        1.22221838397645        1.72689812731602
H           -4.68232996899050        2.74704996667596        1.36624444722320
H           -4.90213861014012        2.48078026042391       -0.38036646967228
H           -4.95441836792954        0.26795999688879        1.76102859629532
H           -6.38816719488743        1.00259552885276        1.01648604388296
H           -5.28164186614316        0.03943807347461        0.02403067878214
H           -2.63279047274593       -1.56712888937891       -2.01389806023473
H           -0.97944861885729       -1.35198887600134       -1.37404699431253
H           -3.19655765817976       -3.02884513585230       -0.05860758860930
H           -1.80830023891209       -3.67116614456567       -0.95823671863332
H           -1.54507125222099       -2.82079171162183        0.57699312763131
