  16
 
 C          2.7703889851       -0.5903924816        0.1974399855
 C          1.7235460739        0.3975706024       -0.2896319513
 O          0.4623334936        0.0104255064        0.2259156763
 C         -0.5876630354        0.8679018458       -0.1607175813
 C         -1.9008661035        0.3161668151        0.3834923669
 O         -2.3594145992       -0.7071070561       -0.4740148514
 H          3.7458187597       -0.3126684696       -0.1890678985
 H          2.7978384089       -0.5917646604        1.2831554415
 H          2.5166502068       -1.5897242847       -0.1437639700
 H          1.6835743309        0.4093075400       -1.3895446346
 H          1.9613534250        1.4164314052        0.0542922134
 H         -0.4109264720        1.8779684156        0.2380915874
 H         -0.6494569190        0.9243998834       -1.2567735490
 H         -2.6371449257        1.1295304625        0.4284248060
 H         -1.7160044146       -0.0693834681        1.3920068242
 H         -3.0918439281       -1.1760587642       -0.0528046760
          16
        -21.78748202
 C          2.6933892404        0.4078524225       -0.0824878236
 C          1.6597515860       -0.6815459079        0.1884516172
 O          0.3727676592       -0.3980299897       -0.3323814578
 C         -0.3300881787        0.6320579343        0.3400948483
 C         -1.7552503731        0.6518747144       -0.2109157272
 O         -2.4660490573       -0.5214483019        0.1045314980
 H          2.7059468642        0.6497730589       -1.1420526832
 H          2.4705423748        1.3092167784        0.4824410328
 H          3.6748340296        0.0486173797        0.2110433397
 H          1.5842160404       -0.8702023640        1.2691802325
 H          1.9519626382       -1.6068233229       -0.3131425058
 H         -0.3477356155        0.4274832538        1.4200366698
 H          0.1390940122        1.6077417174        0.1661449002
 H         -1.7119572296        0.7905456956       -1.2985513048
 H         -2.3120567613        1.4764360888        0.2370343245
 H         -1.9511820198       -1.2758695549       -0.2174092349
