 xtb: 6.7.1 (edcfbbe)
          04092505213D

 41 40  0     0  0            999 V2000
    0.9707   -2.6933    1.5529 C   0  0  0  0  0  0  0  0  0  0  0  0
    2.0765   -1.6808    1.7748 C   0  0  0  0  0  0  0  0  0  0  0  0
    1.7724   -0.4333    1.1192 O   0  0  0  0  0  0  0  0  0  0  0  0
    2.3943   -0.0025   -0.2893 P   0  0  0  0  0  0  0  0  0  0  0  0
    2.9634   -1.4749   -1.4399 S   0  0  0  0  0  0  0  0  0  0  0  0
    3.6382    0.9335    0.0222 O   0  0  0  0  0  0  0  0  0  0  0  0
    3.5914    2.2979    0.4987 C   0  0  0  0  0  0  0  0  0  0  0  0
    2.9051    2.4234    1.8428 C   0  0  0  0  0  0  0  0  0  0  0  0
    0.9125    1.3297   -0.9926 S   0  0  0  0  0  0  0  0  0  0  0  0
    0.0423    0.1625   -2.0704 C   0  0  0  0  0  0  0  0  0  0  0  0
   -0.7317   -1.2058   -1.1762 S   0  0  0  0  0  0  0  0  0  0  0  0
   -2.0400   -0.0274    0.0013 P   0  0  0  0  0  0  0  0  0  0  0  0
   -2.7807    1.5801   -0.8531 S   0  0  0  0  0  0  0  0  0  0  0  0
   -1.1740    0.2527    1.2985 O   0  0  0  0  0  0  0  0  0  0  0  0
   -1.3077    1.4562    2.0750 C   0  0  0  0  0  0  0  0  0  0  0  0
   -2.5852    1.4393    2.8877 C   0  0  0  0  0  0  0  0  0  0  0  0
   -3.0597   -1.0956    0.5852 O   0  0  0  0  0  0  0  0  0  0  0  0
   -3.8087   -2.0548   -0.1825 C   0  0  0  0  0  0  0  0  0  0  0  0
   -4.5791   -1.4263   -1.3253 C   0  0  0  0  0  0  0  0  0  0  0  0
    0.9419   -2.9960    0.5082 H   0  0  0  0  0  0  0  0  0  0  0  0
    1.1559   -3.5661    2.1706 H   0  0  0  0  0  0  0  0  0  0  0  0
    0.0099   -2.2583    1.8184 H   0  0  0  0  0  0  0  0  0  0  0  0
    3.0320   -2.0612    1.4012 H   0  0  0  0  0  0  0  0  0  0  0  0
    2.1703   -1.4217    2.8310 H   0  0  0  0  0  0  0  0  0  0  0  0
    4.6441    2.5797    0.5540 H   0  0  0  0  0  0  0  0  0  0  0  0
    3.0841    2.9063   -0.2547 H   0  0  0  0  0  0  0  0  0  0  0  0
    1.8604    2.1314    1.7554 H   0  0  0  0  0  0  0  0  0  0  0  0
    3.3922    1.7868    2.5771 H   0  0  0  0  0  0  0  0  0  0  0  0
    2.9570    3.4564    2.1721 H   0  0  0  0  0  0  0  0  0  0  0  0
    0.7473   -0.2872   -2.7688 H   0  0  0  0  0  0  0  0  0  0  0  0
   -0.7206    0.7447   -2.5870 H   0  0  0  0  0  0  0  0  0  0  0  0
   -0.4213    1.4629    2.7113 H   0  0  0  0  0  0  0  0  0  0  0  0
   -1.2878    2.3173    1.3984 H   0  0  0  0  0  0  0  0  0  0  0  0
   -2.6382    2.3340    3.4998 H   0  0  0  0  0  0  0  0  0  0  0  0
   -3.4426    1.4155    2.2157 H   0  0  0  0  0  0  0  0  0  0  0  0
   -2.6154    0.5590    3.5240 H   0  0  0  0  0  0  0  0  0  0  0  0
   -3.1117   -2.8107   -0.5557 H   0  0  0  0  0  0  0  0  0  0  0  0
   -4.4804   -2.5022    0.5525 H   0  0  0  0  0  0  0  0  0  0  0  0
   -5.2147   -0.6233   -0.9596 H   0  0  0  0  0  0  0  0  0  0  0  0
   -3.8907   -1.0131   -2.0613 H   0  0  0  0  0  0  0  0  0  0  0  0
   -5.1942   -2.1820   -1.8032 H   0  0  0  0  0  0  0  0  0  0  0  0
  1  2  1  0  0  0  0
  2  3  1  0  0  0  0
  3  4  1  0  0  0  0
  4  5  2  0  0  0  0
  4  6  2  0  0  0  0
  6  7  1  0  0  0  0
  7  8  1  0  0  0  0
  4  9  1  0  0  0  0
  9 10  1  0  0  0  0
 10 11  1  0  0  0  0
 11 12  1  0  0  0  0
 12 13  2  0  0  0  0
 12 14  2  0  0  0  0
 14 15  1  0  0  0  0
 15 16  1  0  0  0  0
 12 17  2  0  0  0  0
 17 18  1  0  0  0  0
 18 19  1  0  0  0  0
  1 20  1  0  0  0  0
  1 21  1  0  0  0  0
  1 22  1  0  0  0  0
  2 23  1  0  0  0  0
  2 24  1  0  0  0  0
  7 25  1  0  0  0  0
  7 26  1  0  0  0  0
  8 27  1  0  0  0  0
  8 28  1  0  0  0  0
  8 29  1  0  0  0  0
 10 30  1  0  0  0  0
 10 31  1  0  0  0  0
 15 32  1  0  0  0  0
 15 33  1  0  0  0  0
 16 34  1  0  0  0  0
 16 35  1  0  0  0  0
 16 36  1  0  0  0  0
 18 37  1  0  0  0  0
 18 38  1  0  0  0  0
 19 39  1  0  0  0  0
 19 40  1  0  0  0  0
 19 41  1  0  0  0  0
M  END
