 xtb: 6.7.1 (edcfbbe)
          04092509473D

 38 37  0     0  0            999 V2000
    2.8742   -3.3002    0.0368 C   0  0  0  0  0  0  0  0  0  0  0  0
    3.3395   -1.8544   -0.0246 C   0  0  0  0  0  0  0  0  0  0  0  0
    2.3294   -1.0052   -0.6073 O   0  0  0  0  0  0  0  0  0  0  0  0
    2.2645   -0.9385   -1.9266 C   0  0  0  0  0  0  0  0  0  0  0  0
    3.0217   -1.5183   -2.6726 O   0  0  0  0  0  0  0  0  0  0  0  0
    1.1503   -0.0402   -2.4237 C   0  0  0  0  0  0  0  0  0  0  0  0
    0.2471    0.4922   -1.3209 C   0  0  0  0  0  0  0  0  0  0  0  0
   -0.5029    1.1709   -1.7489 H   0  0  0  0  0  0  0  0  0  0  0  0
    1.0407    1.3023   -0.3104 C   0  0  0  0  0  0  0  0  0  0  0  0
    1.9583    2.0203   -0.6359 O   0  0  0  0  0  0  0  0  0  0  0  0
    0.5783    1.1775    0.9154 O   0  0  0  0  0  0  0  0  0  0  0  0
    1.2267    1.9256    1.9661 C   0  0  0  0  0  0  0  0  0  0  0  0
    2.4018    1.1521    2.5408 C   0  0  0  0  0  0  0  0  0  0  0  0
   -0.6729   -0.8711   -0.5320 S   0  0  0  0  0  0  0  0  0  0  0  0
   -2.1849    0.2687    0.4322 P   0  0  0  0  0  0  0  0  0  0  0  0
   -2.5889    2.0218   -0.3400 S   0  0  0  0  0  0  0  0  0  0  0  0
   -3.4164   -0.7576    0.4589 O   0  0  0  0  0  0  0  0  0  0  0  0
   -4.1638   -1.0897   -0.7163 C   0  0  0  0  0  0  0  0  0  0  0  0
   -1.8612    0.3451    1.9757 O   0  0  0  0  0  0  0  0  0  0  0  0
   -1.4305   -0.8109    2.7192 C   0  0  0  0  0  0  0  0  0  0  0  0
    3.6288   -3.8953    0.5407 H   0  0  0  0  0  0  0  0  0  0  0  0
    1.9354   -3.3710    0.5791 H   0  0  0  0  0  0  0  0  0  0  0  0
    2.7315   -3.6887   -0.9686 H   0  0  0  0  0  0  0  0  0  0  0  0
    4.2515   -1.7661   -0.6219 H   0  0  0  0  0  0  0  0  0  0  0  0
    3.5007   -1.4456    0.9731 H   0  0  0  0  0  0  0  0  0  0  0  0
    0.5728   -0.5987   -3.1614 H   0  0  0  0  0  0  0  0  0  0  0  0
    1.6246    0.8030   -2.9327 H   0  0  0  0  0  0  0  0  0  0  0  0
    1.5567    2.8823    1.5510 H   0  0  0  0  0  0  0  0  0  0  0  0
    0.4440    2.0865    2.7079 H   0  0  0  0  0  0  0  0  0  0  0  0
    2.8320    1.7184    3.3605 H   0  0  0  0  0  0  0  0  0  0  0  0
    2.0743    0.1833    2.9076 H   0  0  0  0  0  0  0  0  0  0  0  0
    3.1615    1.0097    1.7753 H   0  0  0  0  0  0  0  0  0  0  0  0
   -3.5509   -1.6802   -1.3968 H   0  0  0  0  0  0  0  0  0  0  0  0
   -4.5051   -0.1810   -1.2143 H   0  0  0  0  0  0  0  0  0  0  0  0
   -5.0138   -1.6710   -0.3667 H   0  0  0  0  0  0  0  0  0  0  0  0
   -0.5303   -1.2235    2.2637 H   0  0  0  0  0  0  0  0  0  0  0  0
   -2.2188   -1.5609    2.7341 H   0  0  0  0  0  0  0  0  0  0  0  0
   -1.2239   -0.4460    3.7217 H   0  0  0  0  0  0  0  0  0  0  0  0
  1  2  1  0  0  0  0
  2  3  1  0  0  0  0
  3  4  1  0  0  0  0
  4  5  2  0  0  0  0
  4  6  1  0  0  0  0
  6  7  1  0  0  0  0
  7  8  1  0  0  0  0
  7  9  1  0  0  0  0
  9 10  2  0  0  0  0
  9 11  1  0  0  0  0
 11 12  1  0  0  0  0
 12 13  1  0  0  0  0
  7 14  1  0  0  0  0
 14 15  1  0  0  0  0
 15 16  2  0  0  0  0
 15 17  1  0  0  0  0
 17 18  1  0  0  0  0
 15 19  2  0  0  0  0
 19 20  1  0  0  0  0
  1 21  1  0  0  0  0
  1 22  1  0  0  0  0
  1 23  1  0  0  0  0
  2 24  1  0  0  0  0
  2 25  1  0  0  0  0
  6 26  1  0  0  0  0
  6 27  1  0  0  0  0
 12 28  1  0  0  0  0
 12 29  1  0  0  0  0
 13 30  1  0  0  0  0
 13 31  1  0  0  0  0
 13 32  1  0  0  0  0
 18 33  1  0  0  0  0
 18 34  1  0  0  0  0
 18 35  1  0  0  0  0
 20 36  1  0  0  0  0
 20 37  1  0  0  0  0
 20 38  1  0  0  0  0
M  END
