 xtb: 6.7.1 (edcfbbe)
          04092507313D

 38 37  0     0  0            999 V2000
    4.7822   -3.7350   -1.3651 C   0  0  0  0  0  0  0  0  0  0  0  0
    4.2641   -2.4934   -0.6660 C   0  0  0  0  0  0  0  0  0  0  0  0
    3.2552   -1.8948   -1.5055 O   0  0  0  0  0  0  0  0  0  0  0  0
    2.4055   -1.0562   -0.9607 C   0  0  0  0  0  0  0  0  0  0  0  0
    2.4067   -0.7415    0.2126 O   0  0  0  0  0  0  0  0  0  0  0  0
    1.4184   -0.5095   -1.9703 C   0  0  0  0  0  0  0  0  0  0  0  0
    0.3112    0.2413   -1.2433 C   0  0  0  0  0  0  0  0  0  0  0  0
   -0.3071    0.8041   -1.9506 H   0  0  0  0  0  0  0  0  0  0  0  0
    0.9210    1.2410   -0.2732 C   0  0  0  0  0  0  0  0  0  0  0  0
    1.8220    1.9802   -0.5998 O   0  0  0  0  0  0  0  0  0  0  0  0
    0.3052    1.2588    0.8901 O   0  0  0  0  0  0  0  0  0  0  0  0
    0.7908    2.1410    1.9207 C   0  0  0  0  0  0  0  0  0  0  0  0
    1.6471    1.3632    2.9053 C   0  0  0  0  0  0  0  0  0  0  0  0
   -0.7822   -0.9388   -0.3839 S   0  0  0  0  0  0  0  0  0  0  0  0
   -2.2550    0.4317    0.2991 P   0  0  0  0  0  0  0  0  0  0  0  0
   -2.3912    2.1313   -0.6641 S   0  0  0  0  0  0  0  0  0  0  0  0
   -3.5822   -0.4652    0.2200 O   0  0  0  0  0  0  0  0  0  0  0  0
   -4.1420   -0.8525   -1.0395 C   0  0  0  0  0  0  0  0  0  0  0  0
   -2.1474    0.6043    1.8653 O   0  0  0  0  0  0  0  0  0  0  0  0
   -2.0450   -0.5246    2.7547 C   0  0  0  0  0  0  0  0  0  0  0  0
    3.9765   -4.4492   -1.5061 H   0  0  0  0  0  0  0  0  0  0  0  0
    5.1903   -3.4701   -2.3356 H   0  0  0  0  0  0  0  0  0  0  0  0
    5.5605   -4.1878   -0.7600 H   0  0  0  0  0  0  0  0  0  0  0  0
    5.0575   -1.7552   -0.5154 H   0  0  0  0  0  0  0  0  0  0  0  0
    3.8140   -2.7247    0.3043 H   0  0  0  0  0  0  0  0  0  0  0  0
    1.0194   -1.3229   -2.5750 H   0  0  0  0  0  0  0  0  0  0  0  0
    1.9577    0.1834   -2.6201 H   0  0  0  0  0  0  0  0  0  0  0  0
    1.3612    2.9405    1.4397 H   0  0  0  0  0  0  0  0  0  0  0  0
   -0.1068    2.5474    2.3906 H   0  0  0  0  0  0  0  0  0  0  0  0
    2.0539    2.0457    3.6438 H   0  0  0  0  0  0  0  0  0  0  0  0
    1.0534    0.6022    3.4033 H   0  0  0  0  0  0  0  0  0  0  0  0
    2.4623    0.8766    2.3738 H   0  0  0  0  0  0  0  0  0  0  0  0
   -5.1201   -1.2672   -0.8096 H   0  0  0  0  0  0  0  0  0  0  0  0
   -3.5064   -1.6011   -1.5120 H   0  0  0  0  0  0  0  0  0  0  0  0
   -4.2405    0.0187   -1.6891 H   0  0  0  0  0  0  0  0  0  0  0  0
   -1.1443   -1.0946    2.5256 H   0  0  0  0  0  0  0  0  0  0  0  0
   -2.9240   -1.1585    2.6559 H   0  0  0  0  0  0  0  0  0  0  0  0
   -1.9878   -0.0960    3.7520 H   0  0  0  0  0  0  0  0  0  0  0  0
  1  2  1  0  0  0  0
  2  3  1  0  0  0  0
  3  4  4  0  0  0  0
  4  5  2  0  0  0  0
  4  6  1  0  0  0  0
  6  7  1  0  0  0  0
  7  8  1  0  0  0  0
  7  9  1  0  0  0  0
  9 10  2  0  0  0  0
  9 11  1  0  0  0  0
 11 12  1  0  0  0  0
 12 13  1  0  0  0  0
  7 14  1  0  0  0  0
 14 15  1  0  0  0  0
 15 16  2  0  0  0  0
 15 17  1  0  0  0  0
 17 18  1  0  0  0  0
 15 19  2  0  0  0  0
 19 20  1  0  0  0  0
  1 21  1  0  0  0  0
  1 22  1  0  0  0  0
  1 23  1  0  0  0  0
  2 24  1  0  0  0  0
  2 25  1  0  0  0  0
  6 26  1  0  0  0  0
  6 27  1  0  0  0  0
 12 28  1  0  0  0  0
 12 29  1  0  0  0  0
 13 30  1  0  0  0  0
 13 31  1  0  0  0  0
 13 32  1  0  0  0  0
 18 33  1  0  0  0  0
 18 34  1  0  0  0  0
 18 35  1  0  0  0  0
 20 36  1  0  0  0  0
 20 37  1  0  0  0  0
 20 38  1  0  0  0  0
M  END
