41
 xtb: 6.7.1 (edcfbbe)
C            5.85301531268468        1.14547158710883       -1.75737231871632
C            4.58483517579872        0.33687631854340       -1.84202199497700
O            4.18264747792425       -0.02045870087713       -0.47242214789513
P            2.64355140069864        0.08120834587486       -0.02353247449568
S            1.70709282422251        1.74167313528122       -0.41533974644982
O            2.91013919810979       -0.30050219573183        1.51148876129167
C            1.84949622881832       -0.74474251364480        2.42704183852851
C            1.08395077145172        0.41165199723298        3.02103469667588
S            1.80750505899871       -1.65017337855612       -0.96320477411482
C            0.10779474922312       -1.12332891233850       -1.36794837693966
S           -1.07915851240435       -1.51328064768811        0.00153908228587
P           -2.45742840471635        0.08255186349705       -0.17757707583820
S           -2.71711664701625        0.80593634032294       -1.96734616965711
O           -1.89953125796858        1.09327945407783        0.94221336193639
C           -2.57379057876842        2.38367200798404        1.16633634371175
C           -1.81739464007709        3.09270358908267        2.25931372655416
O           -3.75731382075651       -0.49998311067563        0.57387729915548
C           -4.89311066319543       -1.10032996573413       -0.13993128961993
C           -4.60403401312785       -2.51181066041566       -0.58640862469238
H            6.64053925205837        0.58709530240044       -1.24346351450713
H            6.19666220122547        1.37187821625439       -2.77158998468312
H            5.67971782234397        2.08814948675310       -1.23067446125378
H            4.73047496890371       -0.60412482265706       -2.37919838580130
H            3.78043333171765        0.90395820560076       -2.32093418062660
H            1.19390511119934       -1.43918412004590        1.89123716725196
H            2.39360014294248       -1.30136197544294        3.19278701537523
H            0.50407160665728        0.94409458046365        2.26442443757386
H            0.39009100956152        0.01481450748105        3.76970679624396
H            1.75979151530121        1.11511912403395        3.51636860839976
H           -0.18316144563506       -1.68476801110463       -2.25881168647549
H            0.09933034479147       -0.05090888206365       -1.58178097544623
H           -2.55496688291700        2.94678275845626        0.22811161793103
H           -3.61206629543475        2.18433758412587        1.45072275179223
H           -0.78418012596754        3.28676081433175        1.95666969378557
H           -2.30382916444121        4.05219618530595        2.46047035695326
H           -1.81619336574290        2.50523639681740        3.18201256063588
H           -5.69905896644630       -1.06919805871345        0.59603715428055
H           -5.15186313791275       -0.44940761793533       -0.98038088634619
H           -4.28713826709231       -3.13380026020659        0.25570933378280
H           -5.52330679532610       -2.93703289165121       -1.00241311692690
H           -3.83382181702129       -2.54116888900330       -1.36207539044424
