 xtb: 6.7.1 (edcfbbe)
          04092505213D

 41 40  0     0  0            999 V2000
    3.3500   -1.6023   -2.7975 C   0  0  0  0  0  0  0  0  0  0  0  0
    4.1041   -0.4769   -2.1168 C   0  0  0  0  0  0  0  0  0  0  0  0
    3.7846   -0.3832   -0.7196 O   0  0  0  0  0  0  0  0  0  0  0  0
    2.3997    0.1705   -0.1839 P   0  0  0  0  0  0  0  0  0  0  0  0
    1.5863    1.5254   -1.3519 S   0  0  0  0  0  0  0  0  0  0  0  0
    2.9817    0.6007    1.2201 O   0  0  0  0  0  0  0  0  0  0  0  0
    2.2488    1.0573    2.3669 C   0  0  0  0  0  0  0  0  0  0  0  0
    1.6552    2.4354    2.1550 C   0  0  0  0  0  0  0  0  0  0  0  0
    1.1965   -1.5342    0.2346 S   0  0  0  0  0  0  0  0  0  0  0  0
   -0.0217   -1.3790   -1.1218 C   0  0  0  0  0  0  0  0  0  0  0  0
   -1.7324   -1.6520   -0.6194 S   0  0  0  0  0  0  0  0  0  0  0  0
   -2.0801    0.1030    0.5484 P   0  0  0  0  0  0  0  0  0  0  0  0
   -1.1760    0.2010    2.2833 S   0  0  0  0  0  0  0  0  0  0  0  0
   -3.6661    0.1828    0.5697 O   0  0  0  0  0  0  0  0  0  0  0  0
   -4.5446   -0.9252    0.8416 C   0  0  0  0  0  0  0  0  0  0  0  0
   -4.2261   -1.6199    2.1484 C   0  0  0  0  0  0  0  0  0  0  0  0
   -1.6889    1.3692   -0.3052 O   0  0  0  0  0  0  0  0  0  0  0  0
   -2.4205    1.9080   -1.4348 C   0  0  0  0  0  0  0  0  0  0  0  0
   -2.0074    1.2662   -2.7438 C   0  0  0  0  0  0  0  0  0  0  0  0
    3.4650   -2.5250   -2.2343 H   0  0  0  0  0  0  0  0  0  0  0  0
    2.2926   -1.3519   -2.8627 H   0  0  0  0  0  0  0  0  0  0  0  0
    3.7410   -1.7415   -3.8003 H   0  0  0  0  0  0  0  0  0  0  0  0
    3.8802    0.4827   -2.5944 H   0  0  0  0  0  0  0  0  0  0  0  0
    5.1809   -0.6513   -2.1254 H   0  0  0  0  0  0  0  0  0  0  0  0
    1.4649    0.3358    2.6149 H   0  0  0  0  0  0  0  0  0  0  0  0
    2.9981    1.0673    3.1607 H   0  0  0  0  0  0  0  0  0  0  0  0
    1.2195    2.7799    3.0874 H   0  0  0  0  0  0  0  0  0  0  0  0
    2.4225    3.1330    1.8285 H   0  0  0  0  0  0  0  0  0  0  0  0
    0.8681    2.3975    1.4028 H   0  0  0  0  0  0  0  0  0  0  0  0
    0.1774   -2.1575   -1.8545 H   0  0  0  0  0  0  0  0  0  0  0  0
    0.0825   -0.3792   -1.5529 H   0  0  0  0  0  0  0  0  0  0  0  0
   -5.5348   -0.4664    0.8649 H   0  0  0  0  0  0  0  0  0  0  0  0
   -4.4769   -1.6265    0.0054 H   0  0  0  0  0  0  0  0  0  0  0  0
   -4.9638   -2.3937    2.3345 H   0  0  0  0  0  0  0  0  0  0  0  0
   -3.2380   -2.0760    2.1002 H   0  0  0  0  0  0  0  0  0  0  0  0
   -4.2347   -0.9074    2.9701 H   0  0  0  0  0  0  0  0  0  0  0  0
   -3.4880    1.7839   -1.2474 H   0  0  0  0  0  0  0  0  0  0  0  0
   -2.1603    2.9676   -1.4200 H   0  0  0  0  0  0  0  0  0  0  0  0
   -2.5220    1.7716   -3.5550 H   0  0  0  0  0  0  0  0  0  0  0  0
   -0.9347    1.3751   -2.8890 H   0  0  0  0  0  0  0  0  0  0  0  0
   -2.2733    0.2118   -2.7609 H   0  0  0  0  0  0  0  0  0  0  0  0
  1  2  1  0  0  0  0
  2  3  1  0  0  0  0
  3  4  2  0  0  0  0
  4  5  2  0  0  0  0
  4  6  2  0  0  0  0
  6  7  1  0  0  0  0
  7  8  1  0  0  0  0
  4  9  1  0  0  0  0
  9 10  1  0  0  0  0
 10 11  1  0  0  0  0
 11 12  1  0  0  0  0
 12 13  2  0  0  0  0
 12 14  2  0  0  0  0
 14 15  1  0  0  0  0
 15 16  1  0  0  0  0
 12 17  2  0  0  0  0
 17 18  1  0  0  0  0
 18 19  1  0  0  0  0
  1 20  1  0  0  0  0
  1 21  1  0  0  0  0
  1 22  1  0  0  0  0
  2 23  1  0  0  0  0
  2 24  1  0  0  0  0
  7 25  1  0  0  0  0
  7 26  1  0  0  0  0
  8 27  1  0  0  0  0
  8 28  1  0  0  0  0
  8 29  1  0  0  0  0
 10 30  1  0  0  0  0
 10 31  1  0  0  0  0
 15 32  1  0  0  0  0
 15 33  1  0  0  0  0
 16 34  1  0  0  0  0
 16 35  1  0  0  0  0
 16 36  1  0  0  0  0
 18 37  1  0  0  0  0
 18 38  1  0  0  0  0
 19 39  1  0  0  0  0
 19 40  1  0  0  0  0
 19 41  1  0  0  0  0
M  END
