 xtb: 6.7.1 (edcfbbe)
          04092505203D

 41 40  0     0  0            999 V2000
    4.1309   -0.9117   -1.9445 C   0  0  0  0  0  0  0  0  0  0  0  0
    2.7500   -0.3760   -2.2525 C   0  0  0  0  0  0  0  0  0  0  0  0
    2.2168    0.4558   -1.1923 O   0  0  0  0  0  0  0  0  0  0  0  0
    1.9757    0.0501    0.3056 P   0  0  0  0  0  0  0  0  0  0  0  0
    0.8691    1.3690    1.2414 S   0  0  0  0  0  0  0  0  0  0  0  0
    3.4408   -0.0669    0.9043 O   0  0  0  0  0  0  0  0  0  0  0  0
    3.6664   -0.2535    2.3158 C   0  0  0  0  0  0  0  0  0  0  0  0
    5.0687    0.2244    2.6338 C   0  0  0  0  0  0  0  0  0  0  0  0
    1.3431   -1.9767    0.3485 S   0  0  0  0  0  0  0  0  0  0  0  0
   -0.3165   -1.8658   -0.3778 C   0  0  0  0  0  0  0  0  0  0  0  0
   -1.5713   -1.1136    0.7013 S   0  0  0  0  0  0  0  0  0  0  0  0
   -2.0764    0.5941   -0.4679 P   0  0  0  0  0  0  0  0  0  0  0  0
   -0.9525    0.9268   -2.0384 S   0  0  0  0  0  0  0  0  0  0  0  0
   -2.1785    1.8249    0.5019 O   0  0  0  0  0  0  0  0  0  0  0  0
   -2.5381    1.8018    1.9029 C   0  0  0  0  0  0  0  0  0  0  0  0
   -3.8596    1.1103    2.1554 C   0  0  0  0  0  0  0  0  0  0  0  0
   -3.6142    0.3962   -0.8494 O   0  0  0  0  0  0  0  0  0  0  0  0
   -4.0631   -0.3057   -2.0178 C   0  0  0  0  0  0  0  0  0  0  0  0
   -3.8332   -1.8010   -1.9194 C   0  0  0  0  0  0  0  0  0  0  0  0
    4.7973   -0.0972   -1.6736 H   0  0  0  0  0  0  0  0  0  0  0  0
    4.0877   -1.6215   -1.1216 H   0  0  0  0  0  0  0  0  0  0  0  0
    4.5163   -1.4137   -2.8267 H   0  0  0  0  0  0  0  0  0  0  0  0
    2.0462   -1.1913   -2.4382 H   0  0  0  0  0  0  0  0  0  0  0  0
    2.7544    0.2993   -3.1097 H   0  0  0  0  0  0  0  0  0  0  0  0
    2.9132    0.3179    2.8689 H   0  0  0  0  0  0  0  0  0  0  0  0
    3.5457   -1.3168    2.5383 H   0  0  0  0  0  0  0  0  0  0  0  0
    5.2621    0.0790    3.6914 H   0  0  0  0  0  0  0  0  0  0  0  0
    5.7940   -0.3381    2.0534 H   0  0  0  0  0  0  0  0  0  0  0  0
    5.1661    1.2795    2.3931 H   0  0  0  0  0  0  0  0  0  0  0  0
   -0.6094   -2.8964   -0.5613 H   0  0  0  0  0  0  0  0  0  0  0  0
   -0.2730   -1.2826   -1.3027 H   0  0  0  0  0  0  0  0  0  0  0  0
   -1.7209    1.3248    2.4515 H   0  0  0  0  0  0  0  0  0  0  0  0
   -2.5749    2.8606    2.1633 H   0  0  0  0  0  0  0  0  0  0  0  0
   -4.6419    1.5654    1.5534 H   0  0  0  0  0  0  0  0  0  0  0  0
   -3.7868    0.0538    1.9019 H   0  0  0  0  0  0  0  0  0  0  0  0
   -4.1104    1.2039    3.2074 H   0  0  0  0  0  0  0  0  0  0  0  0
   -5.1263   -0.0664   -2.0697 H   0  0  0  0  0  0  0  0  0  0  0  0
   -3.5474    0.1082   -2.8906 H   0  0  0  0  0  0  0  0  0  0  0  0
   -4.2262   -2.1826   -0.9808 H   0  0  0  0  0  0  0  0  0  0  0  0
   -4.3348   -2.2930   -2.7465 H   0  0  0  0  0  0  0  0  0  0  0  0
   -2.7685   -2.0191   -1.9746 H   0  0  0  0  0  0  0  0  0  0  0  0
  1  2  1  0  0  0  0
  2  3  1  0  0  0  0
  3  4  2  0  0  0  0
  4  5  2  0  0  0  0
  4  6  2  0  0  0  0
  6  7  1  0  0  0  0
  7  8  1  0  0  0  0
  4  9  1  0  0  0  0
  9 10  1  0  0  0  0
 10 11  1  0  0  0  0
 11 12  1  0  0  0  0
 12 13  2  0  0  0  0
 12 14  2  0  0  0  0
 14 15  1  0  0  0  0
 15 16  1  0  0  0  0
 12 17  2  0  0  0  0
 17 18  1  0  0  0  0
 18 19  1  0  0  0  0
  1 20  1  0  0  0  0
  1 21  1  0  0  0  0
  1 22  1  0  0  0  0
  2 23  1  0  0  0  0
  2 24  1  0  0  0  0
  7 25  1  0  0  0  0
  7 26  1  0  0  0  0
  8 27  1  0  0  0  0
  8 28  1  0  0  0  0
  8 29  1  0  0  0  0
 10 30  1  0  0  0  0
 10 31  1  0  0  0  0
 15 32  1  0  0  0  0
 15 33  1  0  0  0  0
 16 34  1  0  0  0  0
 16 35  1  0  0  0  0
 16 36  1  0  0  0  0
 18 37  1  0  0  0  0
 18 38  1  0  0  0  0
 19 39  1  0  0  0  0
 19 40  1  0  0  0  0
 19 41  1  0  0  0  0
M  END
