 xtb: 6.7.1 (edcfbbe)
          04092513593D

 41 40  0     0  0            999 V2000
    4.1424   -3.3454   -1.4190 C   0  0  0  0  0  0  0  0  0  0  0  0
    2.9377   -2.4642   -1.1616 C   0  0  0  0  0  0  0  0  0  0  0  0
    3.4220   -1.1408   -0.8121 O   0  0  0  0  0  0  0  0  0  0  0  0
    2.4794   -0.0443   -0.1675 P   0  0  0  0  0  0  0  0  0  0  0  0
    3.4407    1.6044    0.2418 S   0  0  0  0  0  0  0  0  0  0  0  0
    1.7416   -0.7425    1.0730 O   0  0  0  0  0  0  0  0  0  0  0  0
    2.2032   -0.5795    2.4272 C   0  0  0  0  0  0  0  0  0  0  0  0
    3.4485   -1.4024    2.6889 C   0  0  0  0  0  0  0  0  0  0  0  0
    0.8548    0.0772   -1.5204 S   0  0  0  0  0  0  0  0  0  0  0  0
    0.1847    1.6497   -0.9183 C   0  0  0  0  0  0  0  0  0  0  0  0
   -0.6233    1.5237    0.7026 S   0  0  0  0  0  0  0  0  0  0  0  0
   -2.4752    0.6882    0.0771 P   0  0  0  0  0  0  0  0  0  0  0  0
   -2.9122    0.8263   -1.8334 S   0  0  0  0  0  0  0  0  0  0  0  0
   -3.4458    1.4785    1.0428 O   0  0  0  0  0  0  0  0  0  0  0  0
   -4.8535    1.6402    0.7708 C   0  0  0  0  0  0  0  0  0  0  0  0
   -5.6126    0.3440    0.9649 C   0  0  0  0  0  0  0  0  0  0  0  0
   -2.5222   -0.7589    0.7406 O   0  0  0  0  0  0  0  0  0  0  0  0
   -1.5865   -1.8222    0.4985 C   0  0  0  0  0  0  0  0  0  0  0  0
   -1.8077   -2.4967   -0.8412 C   0  0  0  0  0  0  0  0  0  0  0  0
    3.8021   -4.3386   -1.6943 H   0  0  0  0  0  0  0  0  0  0  0  0
    4.7394   -2.9336   -2.2273 H   0  0  0  0  0  0  0  0  0  0  0  0
    4.7604   -3.4108   -0.5280 H   0  0  0  0  0  0  0  0  0  0  0  0
    2.3313   -2.8425   -0.3349 H   0  0  0  0  0  0  0  0  0  0  0  0
    2.3128   -2.3677   -2.0529 H   0  0  0  0  0  0  0  0  0  0  0  0
    2.3950    0.4831    2.6049 H   0  0  0  0  0  0  0  0  0  0  0  0
    1.3609   -0.9077    3.0379 H   0  0  0  0  0  0  0  0  0  0  0  0
    4.2643   -1.0459    2.0603 H   0  0  0  0  0  0  0  0  0  0  0  0
    3.7351   -1.2976    3.7307 H   0  0  0  0  0  0  0  0  0  0  0  0
    3.2647   -2.4516    2.4719 H   0  0  0  0  0  0  0  0  0  0  0  0
   -0.5393    1.9787   -1.6639 H   0  0  0  0  0  0  0  0  0  0  0  0
    0.9985    2.3658   -0.8051 H   0  0  0  0  0  0  0  0  0  0  0  0
   -5.1708    2.4055    1.4806 H   0  0  0  0  0  0  0  0  0  0  0  0
   -4.9729    2.0097   -0.2528 H   0  0  0  0  0  0  0  0  0  0  0  0
   -5.4254   -0.0558    1.9578 H   0  0  0  0  0  0  0  0  0  0  0  0
   -6.6758    0.5271    0.8427 H   0  0  0  0  0  0  0  0  0  0  0  0
   -5.2896   -0.3867    0.2248 H   0  0  0  0  0  0  0  0  0  0  0  0
   -0.5696   -1.4244    0.5715 H   0  0  0  0  0  0  0  0  0  0  0  0
   -1.7655   -2.5138    1.3240 H   0  0  0  0  0  0  0  0  0  0  0  0
   -1.5989   -1.8075   -1.6570 H   0  0  0  0  0  0  0  0  0  0  0  0
   -1.1415   -3.3495   -0.9239 H   0  0  0  0  0  0  0  0  0  0  0  0
   -2.8366   -2.8364   -0.9249 H   0  0  0  0  0  0  0  0  0  0  0  0
  1  2  1  0  0  0  0
  2  3  1  0  0  0  0
  3  4  2  0  0  0  0
  4  5  2  0  0  0  0
  4  6  1  0  0  0  0
  6  7  1  0  0  0  0
  7  8  1  0  0  0  0
  4  9  1  0  0  0  0
  9 10  1  0  0  0  0
 10 11  1  0  0  0  0
 11 12  1  0  0  0  0
 12 13  2  0  0  0  0
 12 14  2  0  0  0  0
 14 15  1  0  0  0  0
 15 16  1  0  0  0  0
 12 17  2  0  0  0  0
 17 18  1  0  0  0  0
 18 19  1  0  0  0  0
  1 20  1  0  0  0  0
  1 21  1  0  0  0  0
  1 22  1  0  0  0  0
  2 23  1  0  0  0  0
  2 24  1  0  0  0  0
  7 25  1  0  0  0  0
  7 26  1  0  0  0  0
  8 27  1  0  0  0  0
  8 28  1  0  0  0  0
  8 29  1  0  0  0  0
 10 30  1  0  0  0  0
 10 31  1  0  0  0  0
 15 32  1  0  0  0  0
 15 33  1  0  0  0  0
 16 34  1  0  0  0  0
 16 35  1  0  0  0  0
 16 36  1  0  0  0  0
 18 37  1  0  0  0  0
 18 38  1  0  0  0  0
 19 39  1  0  0  0  0
 19 40  1  0  0  0  0
 19 41  1  0  0  0  0
M  END
