 xtb: 6.7.1 (edcfbbe)
          04092505203D

 41 40  0     0  0            999 V2000
    1.6359   -2.5777    1.7341 C   0  0  0  0  0  0  0  0  0  0  0  0
    1.8853   -1.1246    2.0826 C   0  0  0  0  0  0  0  0  0  0  0  0
    2.9340   -0.5370    1.2950 O   0  0  0  0  0  0  0  0  0  0  0  0
    2.8397   -0.2364   -0.2668 P   0  0  0  0  0  0  0  0  0  0  0  0
    2.9665   -1.7461   -1.5084 S   0  0  0  0  0  0  0  0  0  0  0  0
    4.0764    0.7136   -0.4728 O   0  0  0  0  0  0  0  0  0  0  0  0
    4.5482    1.7167    0.4595 C   0  0  0  0  0  0  0  0  0  0  0  0
    3.5612    2.8509    0.6365 C   0  0  0  0  0  0  0  0  0  0  0  0
    1.0708    0.9600   -0.4944 S   0  0  0  0  0  0  0  0  0  0  0  0
    0.0556   -0.1992   -1.4398 C   0  0  0  0  0  0  0  0  0  0  0  0
   -1.0870   -1.1466   -0.4097 S   0  0  0  0  0  0  0  0  0  0  0  0
   -2.5170    0.4222   -0.1608 P   0  0  0  0  0  0  0  0  0  0  0  0
   -2.7947    1.5814   -1.7108 S   0  0  0  0  0  0  0  0  0  0  0  0
   -2.0126    1.2370    1.0911 O   0  0  0  0  0  0  0  0  0  0  0  0
   -1.8011    0.6508    2.3999 C   0  0  0  0  0  0  0  0  0  0  0  0
   -3.0114    0.8578    3.2874 C   0  0  0  0  0  0  0  0  0  0  0  0
   -3.8062   -0.3227    0.3957 O   0  0  0  0  0  0  0  0  0  0  0  0
   -4.8103   -0.8845   -0.4684 C   0  0  0  0  0  0  0  0  0  0  0  0
   -4.2820   -2.0366   -1.2980 C   0  0  0  0  0  0  0  0  0  0  0  0
    2.5649   -3.1402    1.7789 H   0  0  0  0  0  0  0  0  0  0  0  0
    0.9258   -2.9988    2.4384 H   0  0  0  0  0  0  0  0  0  0  0  0
    1.2269   -2.6656    0.7289 H   0  0  0  0  0  0  0  0  0  0  0  0
    2.2436   -1.0178    3.1081 H   0  0  0  0  0  0  0  0  0  0  0  0
    0.9753   -0.5324    1.9455 H   0  0  0  0  0  0  0  0  0  0  0  0
    4.7611    1.2268    1.4111 H   0  0  0  0  0  0  0  0  0  0  0  0
    5.4767    2.0619    0.0023 H   0  0  0  0  0  0  0  0  0  0  0  0
    2.6476    2.4922    1.1076 H   0  0  0  0  0  0  0  0  0  0  0  0
    4.0066    3.6149    1.2661 H   0  0  0  0  0  0  0  0  0  0  0  0
    3.3055    3.2857   -0.3266 H   0  0  0  0  0  0  0  0  0  0  0  0
    0.7117   -0.9141   -1.9426 H   0  0  0  0  0  0  0  0  0  0  0  0
   -0.5222    0.3861   -2.1562 H   0  0  0  0  0  0  0  0  0  0  0  0
   -1.5788   -0.4135    2.2797 H   0  0  0  0  0  0  0  0  0  0  0  0
   -0.9288    1.1768    2.7928 H   0  0  0  0  0  0  0  0  0  0  0  0
   -3.8696    0.3263    2.8859 H   0  0  0  0  0  0  0  0  0  0  0  0
   -2.7896    0.4822    4.2814 H   0  0  0  0  0  0  0  0  0  0  0  0
   -3.2511    1.9158    3.3484 H   0  0  0  0  0  0  0  0  0  0  0  0
   -5.5917   -1.2106    0.2194 H   0  0  0  0  0  0  0  0  0  0  0  0
   -5.1918   -0.0885   -1.1151 H   0  0  0  0  0  0  0  0  0  0  0  0
   -3.5616   -1.6719   -2.0288 H   0  0  0  0  0  0  0  0  0  0  0  0
   -3.7957   -2.7720   -0.6619 H   0  0  0  0  0  0  0  0  0  0  0  0
   -5.1067   -2.5050   -1.8255 H   0  0  0  0  0  0  0  0  0  0  0  0
  1  2  1  0  0  0  0
  2  3  1  0  0  0  0
  3  4  2  0  0  0  0
  4  5  2  0  0  0  0
  4  6  2  0  0  0  0
  6  7  1  0  0  0  0
  7  8  1  0  0  0  0
  4  9  1  0  0  0  0
  9 10  1  0  0  0  0
 10 11  1  0  0  0  0
 11 12  1  0  0  0  0
 12 13  2  0  0  0  0
 12 14  2  0  0  0  0
 14 15  1  0  0  0  0
 15 16  1  0  0  0  0
 12 17  2  0  0  0  0
 17 18  1  0  0  0  0
 18 19  1  0  0  0  0
  1 20  1  0  0  0  0
  1 21  1  0  0  0  0
  1 22  1  0  0  0  0
  2 23  1  0  0  0  0
  2 24  1  0  0  0  0
  7 25  1  0  0  0  0
  7 26  1  0  0  0  0
  8 27  1  0  0  0  0
  8 28  1  0  0  0  0
  8 29  1  0  0  0  0
 10 30  1  0  0  0  0
 10 31  1  0  0  0  0
 15 32  1  0  0  0  0
 15 33  1  0  0  0  0
 16 34  1  0  0  0  0
 16 35  1  0  0  0  0
 16 36  1  0  0  0  0
 18 37  1  0  0  0  0
 18 38  1  0  0  0  0
 19 39  1  0  0  0  0
 19 40  1  0  0  0  0
 19 41  1  0  0  0  0
M  END
