 xtb: 6.7.1 (edcfbbe)
          04092505203D

 41 40  0     0  0            999 V2000
    1.7694    0.3423   -3.2609 C   0  0  0  0  0  0  0  0  0  0  0  0
    2.3925    0.3991   -1.8830 C   0  0  0  0  0  0  0  0  0  0  0  0
    1.5919   -0.4279   -1.0088 O   0  0  0  0  0  0  0  0  0  0  0  0
    1.9313   -0.5570    0.5293 P   0  0  0  0  0  0  0  0  0  0  0  0
    2.3916    1.0700    1.5290 S   0  0  0  0  0  0  0  0  0  0  0  0
    3.0955   -1.6427    0.4713 O   0  0  0  0  0  0  0  0  0  0  0  0
    3.8917   -1.9755    1.6274 C   0  0  0  0  0  0  0  0  0  0  0  0
    5.2606   -1.3320    1.5227 C   0  0  0  0  0  0  0  0  0  0  0  0
    0.3049   -1.6710    1.2424 S   0  0  0  0  0  0  0  0  0  0  0  0
   -0.7058   -0.3538    2.0115 C   0  0  0  0  0  0  0  0  0  0  0  0
   -2.3403   -0.2000    1.2651 S   0  0  0  0  0  0  0  0  0  0  0  0
   -1.7568    0.6682   -0.5883 P   0  0  0  0  0  0  0  0  0  0  0  0
   -0.3964    2.0744   -0.4925 S   0  0  0  0  0  0  0  0  0  0  0  0
   -3.1260    1.1376   -1.2434 O   0  0  0  0  0  0  0  0  0  0  0  0
   -3.7048    2.4299   -0.9974 C   0  0  0  0  0  0  0  0  0  0  0  0
   -4.2058    2.5758    0.4250 C   0  0  0  0  0  0  0  0  0  0  0  0
   -1.3105   -0.5176   -1.5245 O   0  0  0  0  0  0  0  0  0  0  0  0
   -1.9034   -1.8376   -1.6043 C   0  0  0  0  0  0  0  0  0  0  0  0
   -3.3869   -1.8026   -1.8975 C   0  0  0  0  0  0  0  0  0  0  0  0
    2.3381    0.9736   -3.9356 H   0  0  0  0  0  0  0  0  0  0  0  0
    1.7695   -0.6799   -3.6275 H   0  0  0  0  0  0  0  0  0  0  0  0
    0.7435    0.6999   -3.2116 H   0  0  0  0  0  0  0  0  0  0  0  0
    2.3905    1.4192   -1.4835 H   0  0  0  0  0  0  0  0  0  0  0  0
    3.4152    0.0135   -1.8827 H   0  0  0  0  0  0  0  0  0  0  0  0
    3.3752   -1.6403    2.5311 H   0  0  0  0  0  0  0  0  0  0  0  0
    3.9575   -3.0647    1.6241 H   0  0  0  0  0  0  0  0  0  0  0  0
    5.8660   -1.6390    2.3692 H   0  0  0  0  0  0  0  0  0  0  0  0
    5.7481   -1.6364    0.6007 H   0  0  0  0  0  0  0  0  0  0  0  0
    5.1629   -0.2483    1.5306 H   0  0  0  0  0  0  0  0  0  0  0  0
   -0.1614    0.5914    1.9309 H   0  0  0  0  0  0  0  0  0  0  0  0
   -0.8708   -0.6247    3.0510 H   0  0  0  0  0  0  0  0  0  0  0  0
   -2.9540    3.1944   -1.2213 H   0  0  0  0  0  0  0  0  0  0  0  0
   -4.5206    2.4893   -1.7192 H   0  0  0  0  0  0  0  0  0  0  0  0
   -3.3659    2.5991    1.1172 H   0  0  0  0  0  0  0  0  0  0  0  0
   -4.7590    3.5052    0.5151 H   0  0  0  0  0  0  0  0  0  0  0  0
   -4.8532    1.7429    0.6863 H   0  0  0  0  0  0  0  0  0  0  0  0
   -1.3413   -2.3091   -2.4119 H   0  0  0  0  0  0  0  0  0  0  0  0
   -1.7013   -2.3619   -0.6657 H   0  0  0  0  0  0  0  0  0  0  0  0
   -3.5816   -1.2134   -2.7897 H   0  0  0  0  0  0  0  0  0  0  0  0
   -3.7374   -2.8184   -2.0527 H   0  0  0  0  0  0  0  0  0  0  0  0
   -3.9273   -1.3651   -1.0608 H   0  0  0  0  0  0  0  0  0  0  0  0
  1  2  1  0  0  0  0
  2  3  1  0  0  0  0
  3  4  2  0  0  0  0
  4  5  2  0  0  0  0
  4  6  2  0  0  0  0
  6  7  1  0  0  0  0
  7  8  1  0  0  0  0
  4  9  1  0  0  0  0
  9 10  1  0  0  0  0
 10 11  1  0  0  0  0
 11 12  1  0  0  0  0
 12 13  2  0  0  0  0
 12 14  2  0  0  0  0
 14 15  1  0  0  0  0
 15 16  1  0  0  0  0
 12 17  2  0  0  0  0
 17 18  1  0  0  0  0
 18 19  1  0  0  0  0
  1 20  1  0  0  0  0
  1 21  1  0  0  0  0
  1 22  1  0  0  0  0
  2 23  1  0  0  0  0
  2 24  1  0  0  0  0
  7 25  1  0  0  0  0
  7 26  1  0  0  0  0
  8 27  1  0  0  0  0
  8 28  1  0  0  0  0
  8 29  1  0  0  0  0
 10 30  1  0  0  0  0
 10 31  1  0  0  0  0
 15 32  1  0  0  0  0
 15 33  1  0  0  0  0
 16 34  1  0  0  0  0
 16 35  1  0  0  0  0
 16 36  1  0  0  0  0
 18 37  1  0  0  0  0
 18 38  1  0  0  0  0
 19 39  1  0  0  0  0
 19 40  1  0  0  0  0
 19 41  1  0  0  0  0
M  END
