 xtb: 6.7.1 (edcfbbe)
          04092505213D

 41 40  0     0  0            999 V2000
    3.3440   -0.8125   -3.1832 C   0  0  0  0  0  0  0  0  0  0  0  0
    4.1735   -0.8334   -1.9172 C   0  0  0  0  0  0  0  0  0  0  0  0
    3.6632    0.0477   -0.8964 O   0  0  0  0  0  0  0  0  0  0  0  0
    2.1599    0.0985   -0.3878 P   0  0  0  0  0  0  0  0  0  0  0  0
    0.8984    1.1009   -1.5009 S   0  0  0  0  0  0  0  0  0  0  0  0
    2.3148    0.8146    1.0040 O   0  0  0  0  0  0  0  0  0  0  0  0
    3.2190    0.3654    2.0462 C   0  0  0  0  0  0  0  0  0  0  0  0
    2.7528    0.9746    3.3520 C   0  0  0  0  0  0  0  0  0  0  0  0
    1.7703   -1.9596    0.0048 S   0  0  0  0  0  0  0  0  0  0  0  0
    0.1112   -1.8529    0.7191 C   0  0  0  0  0  0  0  0  0  0  0  0
   -1.1882   -1.4575   -0.4943 S   0  0  0  0  0  0  0  0  0  0  0  0
   -1.8897    0.3296    0.3576 P   0  0  0  0  0  0  0  0  0  0  0  0
   -0.8698    1.1585    1.8084 S   0  0  0  0  0  0  0  0  0  0  0  0
   -3.2976   -0.2412    0.8713 O   0  0  0  0  0  0  0  0  0  0  0  0
   -4.1927    0.6009    1.6218 C   0  0  0  0  0  0  0  0  0  0  0  0
   -5.3955   -0.2346    2.0088 C   0  0  0  0  0  0  0  0  0  0  0  0
   -2.2240    1.3818   -0.7786 O   0  0  0  0  0  0  0  0  0  0  0  0
   -2.5540    1.0809   -2.1546 C   0  0  0  0  0  0  0  0  0  0  0  0
   -3.7550    0.1680   -2.2846 C   0  0  0  0  0  0  0  0  0  0  0  0
    3.2532    0.2032   -3.5615 H   0  0  0  0  0  0  0  0  0  0  0  0
    3.8172   -1.4368   -3.9342 H   0  0  0  0  0  0  0  0  0  0  0  0
    2.3434   -1.1939   -2.9828 H   0  0  0  0  0  0  0  0  0  0  0  0
    5.1836   -0.4598   -2.0943 H   0  0  0  0  0  0  0  0  0  0  0  0
    4.2164   -1.8425   -1.4988 H   0  0  0  0  0  0  0  0  0  0  0  0
    3.1976   -0.7281    2.0818 H   0  0  0  0  0  0  0  0  0  0  0  0
    4.2234    0.6991    1.7792 H   0  0  0  0  0  0  0  0  0  0  0  0
    2.8098    2.0580    3.3000 H   0  0  0  0  0  0  0  0  0  0  0  0
    1.7180    0.7010    3.5448 H   0  0  0  0  0  0  0  0  0  0  0  0
    3.3811    0.6154    4.1603 H   0  0  0  0  0  0  0  0  0  0  0  0
    0.0935   -1.0896    1.5026 H   0  0  0  0  0  0  0  0  0  0  0  0
   -0.0953   -2.8417    1.1202 H   0  0  0  0  0  0  0  0  0  0  0  0
   -3.6587    0.9741    2.5024 H   0  0  0  0  0  0  0  0  0  0  0  0
   -4.4762    1.4560    0.9995 H   0  0  0  0  0  0  0  0  0  0  0  0
   -6.0857    0.3776    2.5800 H   0  0  0  0  0  0  0  0  0  0  0  0
   -5.8929   -0.6063    1.1178 H   0  0  0  0  0  0  0  0  0  0  0  0
   -5.0782   -1.0799    2.6121 H   0  0  0  0  0  0  0  0  0  0  0  0
   -2.7422    2.0664   -2.5838 H   0  0  0  0  0  0  0  0  0  0  0  0
   -1.6668    0.6475   -2.6242 H   0  0  0  0  0  0  0  0  0  0  0  0
   -4.6210    0.6074   -1.7953 H   0  0  0  0  0  0  0  0  0  0  0  0
   -3.9737    0.0260   -3.3383 H   0  0  0  0  0  0  0  0  0  0  0  0
   -3.5456   -0.8014   -1.8343 H   0  0  0  0  0  0  0  0  0  0  0  0
  1  2  1  0  0  0  0
  2  3  1  0  0  0  0
  3  4  2  0  0  0  0
  4  5  2  0  0  0  0
  4  6  2  0  0  0  0
  6  7  1  0  0  0  0
  7  8  1  0  0  0  0
  4  9  1  0  0  0  0
  9 10  1  0  0  0  0
 10 11  1  0  0  0  0
 11 12  1  0  0  0  0
 12 13  2  0  0  0  0
 12 14  1  0  0  0  0
 14 15  1  0  0  0  0
 15 16  1  0  0  0  0
 12 17  2  0  0  0  0
 17 18  1  0  0  0  0
 18 19  1  0  0  0  0
  1 20  1  0  0  0  0
  1 21  1  0  0  0  0
  1 22  1  0  0  0  0
  2 23  1  0  0  0  0
  2 24  1  0  0  0  0
  7 25  1  0  0  0  0
  7 26  1  0  0  0  0
  8 27  1  0  0  0  0
  8 28  1  0  0  0  0
  8 29  1  0  0  0  0
 10 30  1  0  0  0  0
 10 31  1  0  0  0  0
 15 32  1  0  0  0  0
 15 33  1  0  0  0  0
 16 34  1  0  0  0  0
 16 35  1  0  0  0  0
 16 36  1  0  0  0  0
 18 37  1  0  0  0  0
 18 38  1  0  0  0  0
 19 39  1  0  0  0  0
 19 40  1  0  0  0  0
 19 41  1  0  0  0  0
M  END
