 xtb: 6.7.1 (edcfbbe)
          04092514013D

 41 40  0     0  0            999 V2000
    4.3680   -0.0933   -2.2152 C   0  0  0  0  0  0  0  0  0  0  0  0
    4.4877   -0.4239   -0.7409 C   0  0  0  0  0  0  0  0  0  0  0  0
    3.2043   -0.6446   -0.1315 O   0  0  0  0  0  0  0  0  0  0  0  0
    2.2192    0.5520    0.2542 P   0  0  0  0  0  0  0  0  0  0  0  0
    3.0963    2.2291    0.7542 S   0  0  0  0  0  0  0  0  0  0  0  0
    1.3072   -0.1160    1.3660 O   0  0  0  0  0  0  0  0  0  0  0  0
    1.6329   -0.0384    2.7682 C   0  0  0  0  0  0  0  0  0  0  0  0
    2.8056   -0.9243    3.1343 C   0  0  0  0  0  0  0  0  0  0  0  0
    0.8174    0.7035   -1.3182 S   0  0  0  0  0  0  0  0  0  0  0  0
    0.3518   -1.0310   -1.5921 C   0  0  0  0  0  0  0  0  0  0  0  0
   -0.6802   -1.7699   -0.2890 S   0  0  0  0  0  0  0  0  0  0  0  0
   -2.2561   -0.3828   -0.2856 P   0  0  0  0  0  0  0  0  0  0  0  0
   -2.8060    0.3995   -2.0017 S   0  0  0  0  0  0  0  0  0  0  0  0
   -1.7706    0.6143    0.8460 O   0  0  0  0  0  0  0  0  0  0  0  0
   -2.3869    1.9046    1.0594 C   0  0  0  0  0  0  0  0  0  0  0  0
   -1.4858    3.0075    0.5401 C   0  0  0  0  0  0  0  0  0  0  0  0
   -3.4261   -1.1493    0.4766 O   0  0  0  0  0  0  0  0  0  0  0  0
   -4.3245   -2.0662   -0.1837 C   0  0  0  0  0  0  0  0  0  0  0  0
   -5.5587   -2.2232    0.6832 C   0  0  0  0  0  0  0  0  0  0  0  0
    3.8098   -0.8661   -2.7370 H   0  0  0  0  0  0  0  0  0  0  0  0
    3.8569    0.8602   -2.3442 H   0  0  0  0  0  0  0  0  0  0  0  0
    5.3618   -0.0205   -2.6460 H   0  0  0  0  0  0  0  0  0  0  0  0
    4.9929    0.3879   -0.2073 H   0  0  0  0  0  0  0  0  0  0  0  0
    5.0227   -1.3614   -0.5813 H   0  0  0  0  0  0  0  0  0  0  0  0
    1.8473    1.0069    3.0155 H   0  0  0  0  0  0  0  0  0  0  0  0
    0.7152   -0.3568    3.2651 H   0  0  0  0  0  0  0  0  0  0  0  0
    2.9287   -0.9214    4.2132 H   0  0  0  0  0  0  0  0  0  0  0  0
    2.6300   -1.9412    2.7934 H   0  0  0  0  0  0  0  0  0  0  0  0
    3.7178   -0.5474    2.6746 H   0  0  0  0  0  0  0  0  0  0  0  0
    1.2406   -1.6531   -1.6583 H   0  0  0  0  0  0  0  0  0  0  0  0
   -0.2016   -1.0229   -2.5304 H   0  0  0  0  0  0  0  0  0  0  0  0
   -3.3597    1.9296    0.5599 H   0  0  0  0  0  0  0  0  0  0  0  0
   -2.5271    1.9768    2.1393 H   0  0  0  0  0  0  0  0  0  0  0  0
   -1.9096    3.9721    0.8003 H   0  0  0  0  0  0  0  0  0  0  0  0
   -0.4942    2.9225    0.9801 H   0  0  0  0  0  0  0  0  0  0  0  0
   -1.3898    2.9393   -0.5418 H   0  0  0  0  0  0  0  0  0  0  0  0
   -4.5748   -1.6601   -1.1694 H   0  0  0  0  0  0  0  0  0  0  0  0
   -3.8051   -3.0196   -0.3090 H   0  0  0  0  0  0  0  0  0  0  0  0
   -5.2773   -2.5849    1.6680 H   0  0  0  0  0  0  0  0  0  0  0  0
   -6.0690   -1.2702    0.7909 H   0  0  0  0  0  0  0  0  0  0  0  0
   -6.2306   -2.9369    0.2174 H   0  0  0  0  0  0  0  0  0  0  0  0
  1  2  1  0  0  0  0
  2  3  1  0  0  0  0
  3  4  2  0  0  0  0
  4  5  2  0  0  0  0
  4  6  2  0  0  0  0
  6  7  1  0  0  0  0
  7  8  1  0  0  0  0
  4  9  1  0  0  0  0
  9 10  1  0  0  0  0
 10 11  1  0  0  0  0
 11 12  1  0  0  0  0
 12 13  2  0  0  0  0
 12 14  2  0  0  0  0
 14 15  1  0  0  0  0
 15 16  1  0  0  0  0
 12 17  2  0  0  0  0
 17 18  1  0  0  0  0
 18 19  1  0  0  0  0
  1 20  1  0  0  0  0
  1 21  1  0  0  0  0
  1 22  1  0  0  0  0
  2 23  1  0  0  0  0
  2 24  1  0  0  0  0
  7 25  1  0  0  0  0
  7 26  1  0  0  0  0
  8 27  1  0  0  0  0
  8 28  1  0  0  0  0
  8 29  1  0  0  0  0
 10 30  1  0  0  0  0
 10 31  1  0  0  0  0
 15 32  1  0  0  0  0
 15 33  1  0  0  0  0
 16 34  1  0  0  0  0
 16 35  1  0  0  0  0
 16 36  1  0  0  0  0
 18 37  1  0  0  0  0
 18 38  1  0  0  0  0
 19 39  1  0  0  0  0
 19 40  1  0  0  0  0
 19 41  1  0  0  0  0
M  END
