41
 xtb: 6.7.1 (edcfbbe)
C            2.91437792197310       -0.32146759137602        3.13307231096340
C            1.64045007788929       -0.73976380571644        2.44127461881189
O            1.41767847018343        0.02886928140127        1.20771644499736
P            2.23496163585040       -0.25538797630761       -0.14234002810147
S            2.86007301456029       -2.07516988910247       -0.44416428289473
O            3.35124978661774        0.90284185296004       -0.04981539157980
C            4.39467238381709        1.03155528754293       -1.08089049467564
C            5.73196094828390        1.10684139652295       -0.39077926316149
S            0.95554839397673        0.55380626629859       -1.62310298687813
C           -0.02549440236747       -0.92308287665951       -2.10075284593634
S           -1.09818781112330       -1.66806816381375       -0.81261965542206
P           -2.39734599809392       -0.04502193565924       -0.37736249999683
S           -2.94489956025409        1.02448627830706       -1.90990108258489
O           -1.68862526774650        0.71670193795239        0.84187874188177
C           -1.50507251893959        2.17215562013101        0.89584396114368
C           -2.68196297074994        2.82457434984788        1.57621227208106
O           -3.54194203892671       -0.81464062134863        0.45135187599481
C           -4.49737171761755       -1.70305027807884       -0.23288677764873
C           -5.88685133861426       -1.32795099591341        0.21252026323286
H            3.79534409481506       -0.56831728084521        2.53256012599233
H            2.91267946104342        0.75278520699912        3.34090827817353
H            2.98813228002041       -0.85814569283572        4.08498363519811
H            0.75705300176121       -0.51466976913453        3.04269361353044
H            1.63825554575312       -1.80447461318298        2.18835321685456
H            4.34285686668719        0.17591554742833       -1.76132529469939
H            4.16490175845525        1.94487322177628       -1.63624980565532
H            6.51350947636493        1.25941370701547       -1.14176857906616
H            5.76185222522691        1.94353430191641        0.31306006082709
H            5.94378775780817        0.17877683340028        0.14805125306731
H            0.64877113927242       -1.72359593490368       -2.41882382068579
H           -0.63807009593875       -0.60009643502524       -2.94748917139276
H           -0.58008688993195        2.30205871143873        1.46212080663725
H           -1.35671381093797        2.54781082403688       -0.12019722379499
H           -2.82483649518030        2.42181477855968        2.58315318278124
H           -2.49317473695375        3.90036213516220        1.65737071977193
H           -3.60057210308331        2.67897334180941        0.99951891721262
H           -4.38291606335560       -1.59840820264777       -1.31628570374970
H           -4.23221400027895       -2.72279007264455        0.05872656015421
H           -5.98214976402608       -1.40108390254747        1.29960504887113
H           -6.13354459153091       -0.30944233210929       -0.10074574528794
H           -6.60500418780779       -2.01623208532971       -0.24411418992581
