 xtb: 6.7.1 (edcfbbe)
          04092505203D

 41 40  0     0  0            999 V2000
    1.8617   -2.9118    0.7400 C   0  0  0  0  0  0  0  0  0  0  0  0
    1.9410   -1.6577    1.5861 C   0  0  0  0  0  0  0  0  0  0  0  0
    2.9113   -0.7169    1.0957 O   0  0  0  0  0  0  0  0  0  0  0  0
    2.7824    0.1110   -0.2583 P   0  0  0  0  0  0  0  0  0  0  0  0
    3.0414   -0.8384   -1.9534 S   0  0  0  0  0  0  0  0  0  0  0  0
    3.9203    1.1809   -0.0766 O   0  0  0  0  0  0  0  0  0  0  0  0
    4.3033    1.8162    1.1682 C   0  0  0  0  0  0  0  0  0  0  0  0
    3.2023    2.6847    1.7381 C   0  0  0  0  0  0  0  0  0  0  0  0
    0.9103    1.1517   -0.1071 S   0  0  0  0  0  0  0  0  0  0  0  0
   -0.0176    0.2631   -1.3769 C   0  0  0  0  0  0  0  0  0  0  0  0
   -1.0406   -1.0678   -0.7054 S   0  0  0  0  0  0  0  0  0  0  0  0
   -2.6714    0.1796   -0.1223 P   0  0  0  0  0  0  0  0  0  0  0  0
   -3.1472    1.6016   -1.3782 S   0  0  0  0  0  0  0  0  0  0  0  0
   -2.2737    0.7571    1.2878 O   0  0  0  0  0  0  0  0  0  0  0  0
   -1.9599   -0.0874    2.4268 C   0  0  0  0  0  0  0  0  0  0  0  0
   -0.9531    0.6462    3.2884 C   0  0  0  0  0  0  0  0  0  0  0  0
   -3.8231   -0.8501    0.2544 O   0  0  0  0  0  0  0  0  0  0  0  0
   -4.7641   -1.3603   -0.7076 C   0  0  0  0  0  0  0  0  0  0  0  0
   -4.0988   -2.2030   -1.7761 C   0  0  0  0  0  0  0  0  0  0  0  0
    1.2085   -3.6300    1.2247 H   0  0  0  0  0  0  0  0  0  0  0  0
    1.4598   -2.6835   -0.2457 H   0  0  0  0  0  0  0  0  0  0  0  0
    2.8499   -3.3476    0.6178 H   0  0  0  0  0  0  0  0  0  0  0  0
    2.2891   -1.8810    2.5962 H   0  0  0  0  0  0  0  0  0  0  0  0
    0.9665   -1.1630    1.6314 H   0  0  0  0  0  0  0  0  0  0  0  0
    4.5955    1.0367    1.8737 H   0  0  0  0  0  0  0  0  0  0  0  0
    5.1748    2.4083    0.8851 H   0  0  0  0  0  0  0  0  0  0  0  0
    2.3498    2.0747    2.0311 H   0  0  0  0  0  0  0  0  0  0  0  0
    3.5781    3.2079    2.6118 H   0  0  0  0  0  0  0  0  0  0  0  0
    2.8707    3.4115    1.0007 H   0  0  0  0  0  0  0  0  0  0  0  0
    0.6904   -0.1869   -2.0775 H   0  0  0  0  0  0  0  0  0  0  0  0
   -0.6670    0.9837   -1.8762 H   0  0  0  0  0  0  0  0  0  0  0  0
   -2.8931   -0.2694    2.9624 H   0  0  0  0  0  0  0  0  0  0  0  0
   -1.5659   -1.0400    2.0593 H   0  0  0  0  0  0  0  0  0  0  0  0
   -1.3737    1.5867    3.6314 H   0  0  0  0  0  0  0  0  0  0  0  0
   -0.6979    0.0302    4.1445 H   0  0  0  0  0  0  0  0  0  0  0  0
   -0.0560    0.8632    2.7139 H   0  0  0  0  0  0  0  0  0  0  0  0
   -5.4565   -1.9483   -0.1035 H   0  0  0  0  0  0  0  0  0  0  0  0
   -5.2893   -0.5127   -1.1581 H   0  0  0  0  0  0  0  0  0  0  0  0
   -3.4691   -1.5773   -2.4072 H   0  0  0  0  0  0  0  0  0  0  0  0
   -3.4838   -2.9763   -1.3226 H   0  0  0  0  0  0  0  0  0  0  0  0
   -4.8621   -2.6650   -2.3941 H   0  0  0  0  0  0  0  0  0  0  0  0
  1  2  1  0  0  0  0
  2  3  1  0  0  0  0
  3  4  2  0  0  0  0
  4  5  2  0  0  0  0
  4  6  2  0  0  0  0
  6  7  1  0  0  0  0
  7  8  1  0  0  0  0
  4  9  1  0  0  0  0
  9 10  1  0  0  0  0
 10 11  1  0  0  0  0
 11 12  1  0  0  0  0
 12 13  2  0  0  0  0
 12 14  2  0  0  0  0
 14 15  1  0  0  0  0
 15 16  1  0  0  0  0
 12 17  2  0  0  0  0
 17 18  1  0  0  0  0
 18 19  1  0  0  0  0
  1 20  1  0  0  0  0
  1 21  1  0  0  0  0
  1 22  1  0  0  0  0
  2 23  1  0  0  0  0
  2 24  1  0  0  0  0
  7 25  1  0  0  0  0
  7 26  1  0  0  0  0
  8 27  1  0  0  0  0
  8 28  1  0  0  0  0
  8 29  1  0  0  0  0
 10 30  1  0  0  0  0
 10 31  1  0  0  0  0
 15 32  1  0  0  0  0
 15 33  1  0  0  0  0
 16 34  1  0  0  0  0
 16 35  1  0  0  0  0
 16 36  1  0  0  0  0
 18 37  1  0  0  0  0
 18 38  1  0  0  0  0
 19 39  1  0  0  0  0
 19 40  1  0  0  0  0
 19 41  1  0  0  0  0
M  END
