41
 xtb: 6.7.1 (edcfbbe)
C            0.99693651008411       -1.51534090826387        2.98233649292466
C            1.97698149466987       -1.31701905169652        1.85646755179383
O            1.46875813795035       -0.20375449382796        1.03513128189495
P            2.24298193047713        0.24993593522090       -0.29549081063816
S            3.04047200631085       -1.15640698401667       -1.38223307561705
O            3.23755028684283        1.36107015600992        0.31111054336696
C            4.25884754329510        2.00878711251912       -0.52960505028175
C            5.60684115002742        1.80505708954114        0.11160150957730
S            0.80598506921106        1.47268977826205       -1.25417724404048
C           -0.03707999301094        0.24720286351061       -2.33010934425003
S           -0.95700168213049       -1.10560701265266       -1.49768704690029
P           -2.48795103059717       -0.02520764007557       -0.51559795127794
S           -3.22524430322302        1.49526067133240       -1.48506397811419
O           -1.83181604790168        0.27012827039805        0.91889131229693
C           -2.42667067133116        1.27117794530022        1.82215589642913
C           -1.56451210548467        1.31665732282634        3.05582481171582
O           -3.50284142399441       -1.21403095904679       -0.13021765135515
C           -4.43938621303653       -1.77200266090602       -1.11973508624101
C           -5.82853110357172       -1.72374352707848       -0.53870836320343
H            1.33450002847569       -2.35542135213124        3.59736039054463
H            0.93658515091241       -0.62620243825549        3.61552676625836
H            0.00135896495954       -1.74961671279273        2.59397231439897
H            2.04926583553199       -2.20316935627629        1.21944262553562
H            2.97355661878881       -1.04947766089870        2.22206914861989
H            4.22473472579653        1.58403364414174       -1.53746061559157
H            3.97985308122088        3.06454458726265       -0.57746496150521
H            5.86795409324443        0.74330999188654        0.14205754043063
H            6.36448951104182        2.33221010011281       -0.47693098278478
H            5.62032956032546        2.20607239150868        1.12901139873176
H            0.70233242967280       -0.25134906504646       -2.96329611533873
H           -0.72335614524813        0.82783039512714       -2.95335676017827
H           -2.44104502704496        2.23230093346844        1.30025274934892
H           -3.45301596380797        0.96502193669579        2.04894112755833
H           -0.53591687983336        1.58805278553625        2.80043575414780
H           -1.96416100671783        2.07647461971909        3.73468380794203
H           -1.56545430902104        0.35454949343988        3.57493771243434
H           -4.37244548528964       -1.19801476038865       -2.04907553913430
H           -4.10563687286871       -2.79603650545807       -1.30690580827845
H           -6.52467688764608       -2.19396263186846       -1.24009215351657
H           -5.87455676369491       -2.26754746853743        0.40893108205935
H           -6.14634591231999       -0.69032668420109       -0.37391196340340
