 xtb: 6.7.1 (edcfbbe)
          04092505203D

 41 40  0     0  0            999 V2000
    4.5400   -0.9871   -2.3491 C   0  0  0  0  0  0  0  0  0  0  0  0
    3.8342   -1.9780   -1.4477 C   0  0  0  0  0  0  0  0  0  0  0  0
    3.4170   -1.3961   -0.1977 O   0  0  0  0  0  0  0  0  0  0  0  0
    2.5053   -0.1040   -0.0401 P   0  0  0  0  0  0  0  0  0  0  0  0
    3.3057    1.6600   -0.3086 S   0  0  0  0  0  0  0  0  0  0  0  0
    2.0314   -0.2418    1.4549 O   0  0  0  0  0  0  0  0  0  0  0  0
    1.4421   -1.4502    1.9984 C   0  0  0  0  0  0  0  0  0  0  0  0
    0.5430   -1.0553    3.1515 C   0  0  0  0  0  0  0  0  0  0  0  0
    0.8322   -0.5536   -1.2916 S   0  0  0  0  0  0  0  0  0  0  0  0
    0.1313    1.1083   -1.2511 C   0  0  0  0  0  0  0  0  0  0  0  0
   -0.5979    1.5270    0.3557 S   0  0  0  0  0  0  0  0  0  0  0  0
   -2.3351    0.3561    0.1132 P   0  0  0  0  0  0  0  0  0  0  0  0
   -3.1971    0.3884   -1.6528 S   0  0  0  0  0  0  0  0  0  0  0  0
   -3.2859    0.7601    1.3226 O   0  0  0  0  0  0  0  0  0  0  0  0
   -4.2637    1.8094    1.2190 C   0  0  0  0  0  0  0  0  0  0  0  0
   -3.6202    3.1747    1.0890 C   0  0  0  0  0  0  0  0  0  0  0  0
   -1.7994   -1.0536    0.5923 O   0  0  0  0  0  0  0  0  0  0  0  0
   -2.5329   -2.2758    0.3368 C   0  0  0  0  0  0  0  0  0  0  0  0
   -1.5424   -3.3917    0.0742 C   0  0  0  0  0  0  0  0  0  0  0  0
    5.3747   -0.5261   -1.8265 H   0  0  0  0  0  0  0  0  0  0  0  0
    4.9068   -1.5003   -3.2322 H   0  0  0  0  0  0  0  0  0  0  0  0
    3.8519   -0.2004   -2.6555 H   0  0  0  0  0  0  0  0  0  0  0  0
    4.5009   -2.7864   -1.1427 H   0  0  0  0  0  0  0  0  0  0  0  0
    2.9508   -2.3899   -1.9431 H   0  0  0  0  0  0  0  0  0  0  0  0
    0.8782   -1.9516    1.2065 H   0  0  0  0  0  0  0  0  0  0  0  0
    2.2608   -2.0933    2.3263 H   0  0  0  0  0  0  0  0  0  0  0  0
    1.1044   -0.4721    3.8758 H   0  0  0  0  0  0  0  0  0  0  0  0
   -0.2904   -0.4560    2.7922 H   0  0  0  0  0  0  0  0  0  0  0  0
    0.1590   -1.9513    3.6288 H   0  0  0  0  0  0  0  0  0  0  0  0
   -0.6391    1.1518   -2.0215 H   0  0  0  0  0  0  0  0  0  0  0  0
    0.9244    1.8347   -1.4338 H   0  0  0  0  0  0  0  0  0  0  0  0
   -4.9024    1.6015    0.3546 H   0  0  0  0  0  0  0  0  0  0  0  0
   -4.8420    1.7211    2.1396 H   0  0  0  0  0  0  0  0  0  0  0  0
   -4.3879    3.9407    1.1291 H   0  0  0  0  0  0  0  0  0  0  0  0
   -2.9066    3.3354    1.8934 H   0  0  0  0  0  0  0  0  0  0  0  0
   -3.0959    3.2505    0.1369 H   0  0  0  0  0  0  0  0  0  0  0  0
   -3.1453   -2.4786    1.2176 H   0  0  0  0  0  0  0  0  0  0  0  0
   -3.1848   -2.1171   -0.5291 H   0  0  0  0  0  0  0  0  0  0  0  0
   -0.9204   -3.5575    0.9491 H   0  0  0  0  0  0  0  0  0  0  0  0
   -2.0891   -4.3013   -0.1525 H   0  0  0  0  0  0  0  0  0  0  0  0
   -0.9097   -3.1353   -0.7722 H   0  0  0  0  0  0  0  0  0  0  0  0
  1  2  1  0  0  0  0
  2  3  1  0  0  0  0
  3  4  2  0  0  0  0
  4  5  2  0  0  0  0
  4  6  2  0  0  0  0
  6  7  1  0  0  0  0
  7  8  1  0  0  0  0
  4  9  1  0  0  0  0
  9 10  1  0  0  0  0
 10 11  1  0  0  0  0
 11 12  1  0  0  0  0
 12 13  2  0  0  0  0
 12 14  2  0  0  0  0
 14 15  1  0  0  0  0
 15 16  1  0  0  0  0
 12 17  2  0  0  0  0
 17 18  1  0  0  0  0
 18 19  1  0  0  0  0
  1 20  1  0  0  0  0
  1 21  1  0  0  0  0
  1 22  1  0  0  0  0
  2 23  1  0  0  0  0
  2 24  1  0  0  0  0
  7 25  1  0  0  0  0
  7 26  1  0  0  0  0
  8 27  1  0  0  0  0
  8 28  1  0  0  0  0
  8 29  1  0  0  0  0
 10 30  1  0  0  0  0
 10 31  1  0  0  0  0
 15 32  1  0  0  0  0
 15 33  1  0  0  0  0
 16 34  1  0  0  0  0
 16 35  1  0  0  0  0
 16 36  1  0  0  0  0
 18 37  1  0  0  0  0
 18 38  1  0  0  0  0
 19 39  1  0  0  0  0
 19 40  1  0  0  0  0
 19 41  1  0  0  0  0
M  END
