 xtb: 6.7.1 (edcfbbe)
          04092505203D

 41 40  0     0  0            999 V2000
    4.6046   -2.2255    0.1261 C   0  0  0  0  0  0  0  0  0  0  0  0
    4.5256   -0.7164    0.2397 C   0  0  0  0  0  0  0  0  0  0  0  0
    3.8008   -0.1731   -0.8964 O   0  0  0  0  0  0  0  0  0  0  0  0
    2.3813    0.4970   -0.7774 P   0  0  0  0  0  0  0  0  0  0  0  0
    1.7113    1.0278   -2.5340 S   0  0  0  0  0  0  0  0  0  0  0  0
    2.6884    1.6689    0.2552 O   0  0  0  0  0  0  0  0  0  0  0  0
    1.7599    2.7137    0.5977 C   0  0  0  0  0  0  0  0  0  0  0  0
    1.1100    2.4409    1.9399 C   0  0  0  0  0  0  0  0  0  0  0  0
    1.2001   -0.8975    0.3196 S   0  0  0  0  0  0  0  0  0  0  0  0
    0.1310   -1.4884   -1.0349 C   0  0  0  0  0  0  0  0  0  0  0  0
   -1.4932   -1.9704   -0.4319 S   0  0  0  0  0  0  0  0  0  0  0  0
   -2.0931   -0.0660    0.3318 P   0  0  0  0  0  0  0  0  0  0  0  0
   -1.4989    1.5115   -0.6652 S   0  0  0  0  0  0  0  0  0  0  0  0
   -1.5557    0.0194    1.8099 O   0  0  0  0  0  0  0  0  0  0  0  0
   -1.8344   -0.9767    2.8260 C   0  0  0  0  0  0  0  0  0  0  0  0
   -2.9366   -0.4965    3.7473 C   0  0  0  0  0  0  0  0  0  0  0  0
   -3.6521   -0.2694    0.5586 O   0  0  0  0  0  0  0  0  0  0  0  0
   -4.5790   -0.7789   -0.4177 C   0  0  0  0  0  0  0  0  0  0  0  0
   -4.5280   -0.0212   -1.7277 C   0  0  0  0  0  0  0  0  0  0  0  0
    5.0228   -2.5025   -0.8375 H   0  0  0  0  0  0  0  0  0  0  0  0
    5.2420   -2.6072    0.9172 H   0  0  0  0  0  0  0  0  0  0  0  0
    3.6157   -2.6666    0.2226 H   0  0  0  0  0  0  0  0  0  0  0  0
    5.5147   -0.2593    0.1874 H   0  0  0  0  0  0  0  0  0  0  0  0
    4.0284   -0.4106    1.1627 H   0  0  0  0  0  0  0  0  0  0  0  0
    2.3653    3.6217    0.6293 H   0  0  0  0  0  0  0  0  0  0  0  0
    1.0097    2.8082   -0.1942 H   0  0  0  0  0  0  0  0  0  0  0  0
    1.8711    2.2646    2.6947 H   0  0  0  0  0  0  0  0  0  0  0  0
    0.5128    3.3024    2.2209 H   0  0  0  0  0  0  0  0  0  0  0  0
    0.4566    1.5730    1.8802 H   0  0  0  0  0  0  0  0  0  0  0  0
    0.5671   -2.3770   -1.4849 H   0  0  0  0  0  0  0  0  0  0  0  0
    0.0354   -0.6808   -1.7670 H   0  0  0  0  0  0  0  0  0  0  0  0
   -2.1039   -1.9176    2.3384 H   0  0  0  0  0  0  0  0  0  0  0  0
   -0.8894   -1.0979    3.3588 H   0  0  0  0  0  0  0  0  0  0  0  0
   -2.6589    0.4525    4.1973 H   0  0  0  0  0  0  0  0  0  0  0  0
   -3.8600   -0.3615    3.1904 H   0  0  0  0  0  0  0  0  0  0  0  0
   -3.0923   -1.2332    4.5291 H   0  0  0  0  0  0  0  0  0  0  0  0
   -4.3595   -1.8385   -0.5752 H   0  0  0  0  0  0  0  0  0  0  0  0
   -5.5505   -0.6680    0.0672 H   0  0  0  0  0  0  0  0  0  0  0  0
   -4.6810    1.0422   -1.5583 H   0  0  0  0  0  0  0  0  0  0  0  0
   -3.5573   -0.1549   -2.2040 H   0  0  0  0  0  0  0  0  0  0  0  0
   -5.3005   -0.3943   -2.3924 H   0  0  0  0  0  0  0  0  0  0  0  0
  1  2  1  0  0  0  0
  2  3  1  0  0  0  0
  3  4  2  0  0  0  0
  4  5  2  0  0  0  0
  4  6  2  0  0  0  0
  6  7  1  0  0  0  0
  7  8  1  0  0  0  0
  4  9  1  0  0  0  0
  9 10  1  0  0  0  0
 10 11  1  0  0  0  0
 11 12  1  0  0  0  0
 12 13  2  0  0  0  0
 12 14  2  0  0  0  0
 14 15  1  0  0  0  0
 15 16  1  0  0  0  0
 12 17  2  0  0  0  0
 17 18  1  0  0  0  0
 18 19  1  0  0  0  0
  1 20  1  0  0  0  0
  1 21  1  0  0  0  0
  1 22  1  0  0  0  0
  2 23  1  0  0  0  0
  2 24  1  0  0  0  0
  7 25  1  0  0  0  0
  7 26  1  0  0  0  0
  8 27  1  0  0  0  0
  8 28  1  0  0  0  0
  8 29  1  0  0  0  0
 10 30  1  0  0  0  0
 10 31  1  0  0  0  0
 15 32  1  0  0  0  0
 15 33  1  0  0  0  0
 16 34  1  0  0  0  0
 16 35  1  0  0  0  0
 16 36  1  0  0  0  0
 18 37  1  0  0  0  0
 18 38  1  0  0  0  0
 19 39  1  0  0  0  0
 19 40  1  0  0  0  0
 19 41  1  0  0  0  0
M  END
