 xtb: 6.7.1 (edcfbbe)
          04092505203D

 41 40  0     0  0            999 V2000
    2.3681    1.7228    2.8879 C   0  0  0  0  0  0  0  0  0  0  0  0
    1.3676    1.5762    1.7601 C   0  0  0  0  0  0  0  0  0  0  0  0
    0.8987    0.2086    1.6603 O   0  0  0  0  0  0  0  0  0  0  0  0
    1.4967   -0.8222    0.6325 P   0  0  0  0  0  0  0  0  0  0  0  0
    0.8091   -2.6436    0.8339 S   0  0  0  0  0  0  0  0  0  0  0  0
    3.0570   -0.6849    0.9284 O   0  0  0  0  0  0  0  0  0  0  0  0
    4.0184   -1.5116    0.2457 C   0  0  0  0  0  0  0  0  0  0  0  0
    5.3524   -1.3488    0.9459 C   0  0  0  0  0  0  0  0  0  0  0  0
    1.3835    0.0204   -1.3242 S   0  0  0  0  0  0  0  0  0  0  0  0
    0.1724   -1.0849   -2.0820 C   0  0  0  0  0  0  0  0  0  0  0  0
   -1.4075   -0.2913   -2.5163 S   0  0  0  0  0  0  0  0  0  0  0  0
   -2.0456    0.4770   -0.6565 P   0  0  0  0  0  0  0  0  0  0  0  0
   -3.9367    0.9709   -0.5824 S   0  0  0  0  0  0  0  0  0  0  0  0
   -1.0428    1.6523   -0.2567 O   0  0  0  0  0  0  0  0  0  0  0  0
   -1.2450    3.0058   -0.7018 C   0  0  0  0  0  0  0  0  0  0  0  0
   -0.9080    3.1764   -2.1699 C   0  0  0  0  0  0  0  0  0  0  0  0
   -1.5463   -0.6664    0.3297 O   0  0  0  0  0  0  0  0  0  0  0  0
   -2.3424   -1.0808    1.4596 C   0  0  0  0  0  0  0  0  0  0  0  0
   -2.2849   -0.0705    2.5847 C   0  0  0  0  0  0  0  0  0  0  0  0
    1.9281    1.3895    3.8239 H   0  0  0  0  0  0  0  0  0  0  0  0
    3.2540    1.1273    2.6857 H   0  0  0  0  0  0  0  0  0  0  0  0
    2.6494    2.7675    2.9767 H   0  0  0  0  0  0  0  0  0  0  0  0
    1.8013    1.8723    0.8012 H   0  0  0  0  0  0  0  0  0  0  0  0
    0.4645    2.1594    1.9499 H   0  0  0  0  0  0  0  0  0  0  0  0
    3.6711   -2.5495    0.2802 H   0  0  0  0  0  0  0  0  0  0  0  0
    4.0726   -1.1866   -0.7971 H   0  0  0  0  0  0  0  0  0  0  0  0
    5.6661   -0.3094    0.9130 H   0  0  0  0  0  0  0  0  0  0  0  0
    5.2705   -1.6615    1.9831 H   0  0  0  0  0  0  0  0  0  0  0  0
    6.0935   -1.9629    0.4453 H   0  0  0  0  0  0  0  0  0  0  0  0
   -0.0042   -1.9251   -1.4055 H   0  0  0  0  0  0  0  0  0  0  0  0
    0.5765   -1.4231   -3.0333 H   0  0  0  0  0  0  0  0  0  0  0  0
   -2.2873    3.2798   -0.5079 H   0  0  0  0  0  0  0  0  0  0  0  0
   -0.5809    3.5958   -0.0684 H   0  0  0  0  0  0  0  0  0  0  0  0
    0.0902    2.7960   -2.3747 H   0  0  0  0  0  0  0  0  0  0  0  0
   -1.6241    2.6335   -2.7856 H   0  0  0  0  0  0  0  0  0  0  0  0
   -0.9517    4.2300   -2.4259 H   0  0  0  0  0  0  0  0  0  0  0  0
   -3.3729   -1.2259    1.1212 H   0  0  0  0  0  0  0  0  0  0  0  0
   -1.9073   -2.0392    1.7494 H   0  0  0  0  0  0  0  0  0  0  0  0
   -2.7053    0.8767    2.2487 H   0  0  0  0  0  0  0  0  0  0  0  0
   -2.8655   -0.4395    3.4242 H   0  0  0  0  0  0  0  0  0  0  0  0
   -1.2549    0.0830    2.8945 H   0  0  0  0  0  0  0  0  0  0  0  0
  1  2  1  0  0  0  0
  2  3  1  0  0  0  0
  3  4  2  0  0  0  0
  4  5  2  0  0  0  0
  4  6  2  0  0  0  0
  6  7  1  0  0  0  0
  7  8  1  0  0  0  0
  4  9  1  0  0  0  0
  9 10  1  0  0  0  0
 10 11  1  0  0  0  0
 11 12  1  0  0  0  0
 12 13  2  0  0  0  0
 12 14  2  0  0  0  0
 14 15  1  0  0  0  0
 15 16  1  0  0  0  0
 12 17  1  0  0  0  0
 17 18  1  0  0  0  0
 18 19  1  0  0  0  0
  1 20  1  0  0  0  0
  1 21  1  0  0  0  0
  1 22  1  0  0  0  0
  2 23  1  0  0  0  0
  2 24  1  0  0  0  0
  7 25  1  0  0  0  0
  7 26  1  0  0  0  0
  8 27  1  0  0  0  0
  8 28  1  0  0  0  0
  8 29  1  0  0  0  0
 10 30  1  0  0  0  0
 10 31  1  0  0  0  0
 15 32  1  0  0  0  0
 15 33  1  0  0  0  0
 16 34  1  0  0  0  0
 16 35  1  0  0  0  0
 16 36  1  0  0  0  0
 18 37  1  0  0  0  0
 18 38  1  0  0  0  0
 19 39  1  0  0  0  0
 19 40  1  0  0  0  0
 19 41  1  0  0  0  0
M  END
