17
CONF1
C -1.8494284906 -0.0001776614 0.0721569992
C -1.0652401654 1.2567263810 -0.2968798266
C 0.3164078377 1.2717061865 0.3871060829
C 1.0686839158 0.0001584777 0.1091594913
O 2.2178672411 0.0002516941 -0.3275540663
C 0.3166555464 -1.2714998295 0.3872303523
C -1.0648761006 -1.2568163171 -0.2969968038
H -2.8166810168 -0.0002825840 -0.4425242632
H -2.0550485017 -0.0002697410 1.1509440045
H -0.9248671322 1.2938288522 -1.3845404597
H -1.6139888656 2.1593464295 -0.0097790761
H 0.9178629452 2.1300004006 0.0769343472
H 0.1660946336 1.3253218465 1.4748315597
H 0.9183179858 -2.1297315407 0.0772899474
H 0.1661383480 -1.3249726540 1.4749339446
H -0.9243053981 -1.2936757399 -1.3846436963
H -1.6134233330 -2.1596413870 -0.0101543624
17
CONF3
C -1.7026346586 -0.0536927774 -0.5277609300
C -1.0894647422 1.3109281561 -0.1562420319
C 0.2909737641 1.1789606750 0.5356454880
C 1.0574256656 -0.0107060736 0.0465424773
O 2.2084207988 0.0620725968 -0.3795053741
C 0.3292569263 -1.3302715098 0.1311426308
C -1.1724324097 -1.1638422892 0.3801580954
H -1.4401849260 -0.3078052201 -1.5628961831
H -2.7944606049 0.0029522528 -0.4820245657
H -0.9793748594 1.9264459657 -1.0537361369
H -1.7549748013 1.8519602066 0.5228986122
H 0.8891221574 2.0867555279 0.4332995485
H 0.1281222661 0.9970261600 1.6077569523
H 0.5171851330 -1.8720165268 -0.8036202415
H 0.8139986610 -1.9101735107 0.9284237444
H -1.6855577136 -2.1099902922 0.1833332039
H -1.3596654247 -0.9106209687 1.4307548319
17
CONF2
C -1.9248898598 -0.0001682141 -0.0014810734
C -1.0649759581 1.2240692235 0.3690441512
C 0.2802529341 1.2182874270 -0.3637278878
C 1.0862348762 0.0000851904 0.0009542900
O 2.3147990648 0.0002975064 0.0025085376
C 0.2798172134 -1.2184904540 0.3635065024
C -1.0643203136 -1.2241674943 -0.3711993972
H -2.5780890842 0.2444255155 -0.8457945941
H -2.5787994873 -0.2449605254 0.8422249215
H -1.6026632971 2.1504993632 0.1478977058
H -0.8663031281 1.2274518899 1.4469572465
H 0.1143901289 1.1682667701 -1.4513626432
H 0.8748428018 2.1158503438 -0.1710542368
H 0.8748619083 -2.1158339890 0.1711626083
H 0.1124564127 -1.1691931992 1.4509450685
H -0.8640968027 -1.2271225888 -1.4488268564
H -1.6022641046 -2.1507236227 -0.1511968356
17
CONF4
C -1.8264350047 -0.0454601434 -0.3566360775
C -1.0552403709 1.2964663754 -0.2559100333
C 0.2839299494 1.1751172720 0.5005032763
C 1.0748285833 -0.0096159821 0.0395900777
O 2.2676023287 0.0557291096 -0.2518979479
C 0.3136483096 -1.3096500823 -0.0445190068
C -1.1372916505 -1.1755365133 0.4121440834
H -1.9012919206 -0.3447658514 -1.4081932817
H -2.8505875081 0.0792645328 0.0078159672
H -0.8493965565 1.6846489932 -1.2579260271
H -1.6597201276 2.0514288306 0.2542947941
H 0.8824524762 2.0850034429 0.4141948981
H 0.0772564788 1.0057321079 1.5672433386
H 0.3596428946 -1.6364599943 -1.0929759012
H 0.8673124508 -2.0591919321 0.5339727512
H -1.6661492032 -2.1197599142 0.2490873515
H -1.1695089074 -0.9771017103 1.4899121157
