 xtb: 6.7.1 (edcfbbe)
          04092505203D

 41 40  0     0  0            999 V2000
    3.9315    0.9329   -1.5278 C   0  0  0  0  0  0  0  0  0  0  0  0
    2.4223    1.0355   -1.5912 C   0  0  0  0  0  0  0  0  0  0  0  0
    1.7852    0.0136   -0.8048 O   0  0  0  0  0  0  0  0  0  0  0  0
    1.8095    0.0366    0.7794 P   0  0  0  0  0  0  0  0  0  0  0  0
    1.9384    1.7808    1.6610 S   0  0  0  0  0  0  0  0  0  0  0  0
    3.0681   -0.9148    1.0475 O   0  0  0  0  0  0  0  0  0  0  0  0
    3.7156   -0.9873    2.3250 C   0  0  0  0  0  0  0  0  0  0  0  0
    2.8404   -1.6482    3.3714 C   0  0  0  0  0  0  0  0  0  0  0  0
    0.1261   -1.1655    1.2286 S   0  0  0  0  0  0  0  0  0  0  0  0
    0.0138   -2.1814   -0.2559 C   0  0  0  0  0  0  0  0  0  0  0  0
   -0.6316   -1.3447   -1.7643 S   0  0  0  0  0  0  0  0  0  0  0  0
   -1.8523    0.1921   -1.0210 P   0  0  0  0  0  0  0  0  0  0  0  0
   -2.9886    1.0271   -2.3796 S   0  0  0  0  0  0  0  0  0  0  0  0
   -0.7794    1.1664   -0.3530 O   0  0  0  0  0  0  0  0  0  0  0  0
   -1.1036    2.5515   -0.1060 C   0  0  0  0  0  0  0  0  0  0  0  0
   -2.1350    2.7066    0.9902 C   0  0  0  0  0  0  0  0  0  0  0  0
   -2.6330   -0.3790    0.2446 O   0  0  0  0  0  0  0  0  0  0  0  0
   -3.9266   -0.9961    0.1289 C   0  0  0  0  0  0  0  0  0  0  0  0
   -3.8183   -2.4469   -0.2968 C   0  0  0  0  0  0  0  0  0  0  0  0
    4.3685    1.6531   -2.2124 H   0  0  0  0  0  0  0  0  0  0  0  0
    4.2746    1.1509   -0.5173 H   0  0  0  0  0  0  0  0  0  0  0  0
    4.2512   -0.0689   -1.8017 H   0  0  0  0  0  0  0  0  0  0  0  0
    2.0431    0.8630   -2.6003 H   0  0  0  0  0  0  0  0  0  0  0  0
    2.0843    2.0138   -1.2338 H   0  0  0  0  0  0  0  0  0  0  0  0
    4.6206   -1.5650    2.1319 H   0  0  0  0  0  0  0  0  0  0  0  0
    3.9820    0.0284    2.6358 H   0  0  0  0  0  0  0  0  0  0  0  0
    2.5195   -2.6303    3.0345 H   0  0  0  0  0  0  0  0  0  0  0  0
    3.4003   -1.7489    4.2957 H   0  0  0  0  0  0  0  0  0  0  0  0
    1.9578   -1.0359    3.5574 H   0  0  0  0  0  0  0  0  0  0  0  0
   -0.6586   -2.9976   -0.0039 H   0  0  0  0  0  0  0  0  0  0  0  0
    0.9980   -2.5512   -0.5333 H   0  0  0  0  0  0  0  0  0  0  0  0
   -0.1498    2.9986    0.1813 H   0  0  0  0  0  0  0  0  0  0  0  0
   -1.4576    2.9926   -1.0434 H   0  0  0  0  0  0  0  0  0  0  0  0
   -2.2548    3.7612    1.2176 H   0  0  0  0  0  0  0  0  0  0  0  0
   -3.0913    2.3011    0.6636 H   0  0  0  0  0  0  0  0  0  0  0  0
   -1.8096    2.1799    1.8844 H   0  0  0  0  0  0  0  0  0  0  0  0
   -4.3565   -0.9022    1.1271 H   0  0  0  0  0  0  0  0  0  0  0  0
   -4.5228   -0.4232   -0.5896 H   0  0  0  0  0  0  0  0  0  0  0  0
   -3.3737   -2.5144   -1.2889 H   0  0  0  0  0  0  0  0  0  0  0  0
   -3.2075   -3.0005    0.4112 H   0  0  0  0  0  0  0  0  0  0  0  0
   -4.8117   -2.8831   -0.3275 H   0  0  0  0  0  0  0  0  0  0  0  0
  1  2  1  0  0  0  0
  2  3  1  0  0  0  0
  3  4  1  0  0  0  0
  4  5  2  0  0  0  0
  4  6  1  0  0  0  0
  6  7  1  0  0  0  0
  7  8  1  0  0  0  0
  4  9  1  0  0  0  0
  9 10  1  0  0  0  0
 10 11  1  0  0  0  0
 11 12  1  0  0  0  0
 12 13  2  0  0  0  0
 12 14  1  0  0  0  0
 14 15  1  0  0  0  0
 15 16  1  0  0  0  0
 12 17  2  0  0  0  0
 17 18  1  0  0  0  0
 18 19  1  0  0  0  0
  1 20  1  0  0  0  0
  1 21  1  0  0  0  0
  1 22  1  0  0  0  0
  2 23  1  0  0  0  0
  2 24  1  0  0  0  0
  7 25  1  0  0  0  0
  7 26  1  0  0  0  0
  8 27  1  0  0  0  0
  8 28  1  0  0  0  0
  8 29  1  0  0  0  0
 10 30  1  0  0  0  0
 10 31  1  0  0  0  0
 15 32  1  0  0  0  0
 15 33  1  0  0  0  0
 16 34  1  0  0  0  0
 16 35  1  0  0  0  0
 16 36  1  0  0  0  0
 18 37  1  0  0  0  0
 18 38  1  0  0  0  0
 19 39  1  0  0  0  0
 19 40  1  0  0  0  0
 19 41  1  0  0  0  0
M  END
