 xtb: 6.7.1 (edcfbbe)
          04092505213D

 41 40  0     0  0            999 V2000
    4.4184    2.4477   -1.1859 C   0  0  0  0  0  0  0  0  0  0  0  0
    3.0766    1.8916   -0.7555 C   0  0  0  0  0  0  0  0  0  0  0  0
    3.3211    0.7027    0.0228 O   0  0  0  0  0  0  0  0  0  0  0  0
    2.1544    0.0219    0.8572 P   0  0  0  0  0  0  0  0  0  0  0  0
    1.1785    1.2237    2.0470 S   0  0  0  0  0  0  0  0  0  0  0  0
    2.8726   -1.1360    1.6430 O   0  0  0  0  0  0  0  0  0  0  0  0
    3.8009   -2.0713    1.0336 C   0  0  0  0  0  0  0  0  0  0  0  0
    5.2284   -1.5957    1.2057 C   0  0  0  0  0  0  0  0  0  0  0  0
    1.0575   -0.9626   -0.7026 S   0  0  0  0  0  0  0  0  0  0  0  0
   -0.0807   -1.9059    0.3442 C   0  0  0  0  0  0  0  0  0  0  0  0
   -1.4287   -0.9174    1.0480 S   0  0  0  0  0  0  0  0  0  0  0  0
   -2.1920   -0.1866   -0.8077 P   0  0  0  0  0  0  0  0  0  0  0  0
   -2.0995   -1.4390   -2.3034 S   0  0  0  0  0  0  0  0  0  0  0  0
   -1.4502    1.1691   -1.1069 O   0  0  0  0  0  0  0  0  0  0  0  0
   -1.4649    2.3110   -0.2140 C   0  0  0  0  0  0  0  0  0  0  0  0
   -2.5504    3.2887   -0.6095 C   0  0  0  0  0  0  0  0  0  0  0  0
   -3.6501    0.2886   -0.3981 O   0  0  0  0  0  0  0  0  0  0  0  0
   -4.6901   -0.6713   -0.1144 C   0  0  0  0  0  0  0  0  0  0  0  0
   -6.0181    0.0570   -0.1534 C   0  0  0  0  0  0  0  0  0  0  0  0
    4.9512    1.7136   -1.7834 H   0  0  0  0  0  0  0  0  0  0  0  0
    4.2590    3.3432   -1.7774 H   0  0  0  0  0  0  0  0  0  0  0  0
    5.0155    2.6962   -0.3132 H   0  0  0  0  0  0  0  0  0  0  0  0
    2.4604    1.6180   -1.6172 H   0  0  0  0  0  0  0  0  0  0  0  0
    2.5263    2.6045   -0.1323 H   0  0  0  0  0  0  0  0  0  0  0  0
    3.6285   -3.0090    1.5650 H   0  0  0  0  0  0  0  0  0  0  0  0
    3.5452   -2.1880   -0.0229 H   0  0  0  0  0  0  0  0  0  0  0  0
    5.3813   -0.6612    0.6729 H   0  0  0  0  0  0  0  0  0  0  0  0
    5.4436   -1.4384    2.2590 H   0  0  0  0  0  0  0  0  0  0  0  0
    5.9027   -2.3490    0.8102 H   0  0  0  0  0  0  0  0  0  0  0  0
    0.4552   -2.3399    1.1857 H   0  0  0  0  0  0  0  0  0  0  0  0
   -0.5046   -2.6749   -0.3009 H   0  0  0  0  0  0  0  0  0  0  0  0
   -1.5916    1.9623    0.8151 H   0  0  0  0  0  0  0  0  0  0  0  0
   -0.4712    2.7520   -0.3181 H   0  0  0  0  0  0  0  0  0  0  0  0
   -2.4853    4.1630    0.0305 H   0  0  0  0  0  0  0  0  0  0  0  0
   -2.4198    3.5886   -1.6456 H   0  0  0  0  0  0  0  0  0  0  0  0
   -3.5291    2.8308   -0.4959 H   0  0  0  0  0  0  0  0  0  0  0  0
   -4.6439   -1.4650   -0.8672 H   0  0  0  0  0  0  0  0  0  0  0  0
   -4.4969   -1.1008    0.8724 H   0  0  0  0  0  0  0  0  0  0  0  0
   -6.8149   -0.6466    0.0635 H   0  0  0  0  0  0  0  0  0  0  0  0
   -6.0293    0.8516    0.5871 H   0  0  0  0  0  0  0  0  0  0  0  0
   -6.1786    0.4877   -1.1378 H   0  0  0  0  0  0  0  0  0  0  0  0
  1  2  1  0  0  0  0
  2  3  1  0  0  0  0
  3  4  2  0  0  0  0
  4  5  2  0  0  0  0
  4  6  2  0  0  0  0
  6  7  1  0  0  0  0
  7  8  1  0  0  0  0
  4  9  1  0  0  0  0
  9 10  1  0  0  0  0
 10 11  1  0  0  0  0
 11 12  1  0  0  0  0
 12 13  2  0  0  0  0
 12 14  2  0  0  0  0
 14 15  1  0  0  0  0
 15 16  1  0  0  0  0
 12 17  2  0  0  0  0
 17 18  1  0  0  0  0
 18 19  1  0  0  0  0
  1 20  1  0  0  0  0
  1 21  1  0  0  0  0
  1 22  1  0  0  0  0
  2 23  1  0  0  0  0
  2 24  1  0  0  0  0
  7 25  1  0  0  0  0
  7 26  1  0  0  0  0
  8 27  1  0  0  0  0
  8 28  1  0  0  0  0
  8 29  1  0  0  0  0
 10 30  1  0  0  0  0
 10 31  1  0  0  0  0
 15 32  1  0  0  0  0
 15 33  1  0  0  0  0
 16 34  1  0  0  0  0
 16 35  1  0  0  0  0
 16 36  1  0  0  0  0
 18 37  1  0  0  0  0
 18 38  1  0  0  0  0
 19 39  1  0  0  0  0
 19 40  1  0  0  0  0
 19 41  1  0  0  0  0
M  END
