 xtb: 6.7.1 (edcfbbe)
          04092505213D

 41 40  0     0  0            999 V2000
    3.2222    2.3805   -1.1394 C   0  0  0  0  0  0  0  0  0  0  0  0
    4.0031    1.0827   -1.1662 C   0  0  0  0  0  0  0  0  0  0  0  0
    3.6910    0.2165   -0.0621 O   0  0  0  0  0  0  0  0  0  0  0  0
    2.2324   -0.1257    0.4704 P   0  0  0  0  0  0  0  0  0  0  0  0
    1.4680    1.2015    1.6995 S   0  0  0  0  0  0  0  0  0  0  0  0
    2.4468   -1.5556    1.1164 O   0  0  0  0  0  0  0  0  0  0  0  0
    2.6700   -1.7271    2.5313 C   0  0  0  0  0  0  0  0  0  0  0  0
    4.0632   -1.2802    2.9191 C   0  0  0  0  0  0  0  0  0  0  0  0
    1.1921   -0.6628   -1.3075 S   0  0  0  0  0  0  0  0  0  0  0  0
    0.0078   -1.8404   -0.5987 C   0  0  0  0  0  0  0  0  0  0  0  0
   -1.1041   -1.1146    0.6242 S   0  0  0  0  0  0  0  0  0  0  0  0
   -2.2300    0.0782   -0.7506 P   0  0  0  0  0  0  0  0  0  0  0  0
   -2.3858   -0.6541   -2.5563 S   0  0  0  0  0  0  0  0  0  0  0  0
   -1.5512    1.4987   -0.8181 O   0  0  0  0  0  0  0  0  0  0  0  0
   -1.4777    2.4196    0.2964 C   0  0  0  0  0  0  0  0  0  0  0  0
   -2.5844    3.4487    0.2065 C   0  0  0  0  0  0  0  0  0  0  0  0
   -3.5576    0.3815    0.0657 O   0  0  0  0  0  0  0  0  0  0  0  0
   -4.3712   -0.6056    0.7276 C   0  0  0  0  0  0  0  0  0  0  0  0
   -4.7996   -1.7286   -0.1931 C   0  0  0  0  0  0  0  0  0  0  0  0
    3.5554    3.0202   -1.9504 H   0  0  0  0  0  0  0  0  0  0  0  0
    2.1582    2.1764   -1.2665 H   0  0  0  0  0  0  0  0  0  0  0  0
    3.3681    2.8933   -0.1912 H   0  0  0  0  0  0  0  0  0  0  0  0
    5.0753    1.2595   -1.0624 H   0  0  0  0  0  0  0  0  0  0  0  0
    3.8050    0.5340   -2.0916 H   0  0  0  0  0  0  0  0  0  0  0  0
    1.9122   -1.1555    3.0771 H   0  0  0  0  0  0  0  0  0  0  0  0
    2.5219   -2.7947    2.6970 H   0  0  0  0  0  0  0  0  0  0  0  0
    4.8066   -1.8144    2.3336 H   0  0  0  0  0  0  0  0  0  0  0  0
    4.1690   -0.2127    2.7288 H   0  0  0  0  0  0  0  0  0  0  0  0
    4.2246   -1.4713    3.9752 H   0  0  0  0  0  0  0  0  0  0  0  0
    0.5435   -2.6482   -0.1076 H   0  0  0  0  0  0  0  0  0  0  0  0
   -0.5784   -2.2017   -1.4458 H   0  0  0  0  0  0  0  0  0  0  0  0
   -1.5240    1.8590    1.2338 H   0  0  0  0  0  0  0  0  0  0  0  0
   -0.4928    2.8834    0.2133 H   0  0  0  0  0  0  0  0  0  0  0  0
   -2.4693    4.1615    1.0169 H   0  0  0  0  0  0  0  0  0  0  0  0
   -2.5274    3.9709   -0.7446 H   0  0  0  0  0  0  0  0  0  0  0  0
   -3.5549    2.9658    0.2841 H   0  0  0  0  0  0  0  0  0  0  0  0
   -3.8074   -0.9962    1.5796 H   0  0  0  0  0  0  0  0  0  0  0  0
   -5.2295   -0.0327    1.0835 H   0  0  0  0  0  0  0  0  0  0  0  0
   -5.2942   -1.3284   -1.0750 H   0  0  0  0  0  0  0  0  0  0  0  0
   -3.9321   -2.3016   -0.5176 H   0  0  0  0  0  0  0  0  0  0  0  0
   -5.4817   -2.3868    0.3355 H   0  0  0  0  0  0  0  0  0  0  0  0
  1  2  1  0  0  0  0
  2  3  1  0  0  0  0
  3  4  2  0  0  0  0
  4  5  2  0  0  0  0
  4  6  2  0  0  0  0
  6  7  1  0  0  0  0
  7  8  1  0  0  0  0
  4  9  1  0  0  0  0
  9 10  1  0  0  0  0
 10 11  1  0  0  0  0
 11 12  1  0  0  0  0
 12 13  2  0  0  0  0
 12 14  2  0  0  0  0
 14 15  1  0  0  0  0
 15 16  1  0  0  0  0
 12 17  2  0  0  0  0
 17 18  1  0  0  0  0
 18 19  1  0  0  0  0
  1 20  1  0  0  0  0
  1 21  1  0  0  0  0
  1 22  1  0  0  0  0
  2 23  1  0  0  0  0
  2 24  1  0  0  0  0
  7 25  1  0  0  0  0
  7 26  1  0  0  0  0
  8 27  1  0  0  0  0
  8 28  1  0  0  0  0
  8 29  1  0  0  0  0
 10 30  1  0  0  0  0
 10 31  1  0  0  0  0
 15 32  1  0  0  0  0
 15 33  1  0  0  0  0
 16 34  1  0  0  0  0
 16 35  1  0  0  0  0
 16 36  1  0  0  0  0
 18 37  1  0  0  0  0
 18 38  1  0  0  0  0
 19 39  1  0  0  0  0
 19 40  1  0  0  0  0
 19 41  1  0  0  0  0
M  END
