 xtb: 6.7.1 (edcfbbe)
          04092505213D

 41 40  0     0  0            999 V2000
    5.2729    0.4089   -0.5125 C   0  0  0  0  0  0  0  0  0  0  0  0
    3.9363    0.2402   -1.2053 C   0  0  0  0  0  0  0  0  0  0  0  0
    2.8752    0.8493   -0.4245 O   0  0  0  0  0  0  0  0  0  0  0  0
    1.9640    0.0572    0.5884 P   0  0  0  0  0  0  0  0  0  0  0  0
    0.9310    1.2444    1.7436 S   0  0  0  0  0  0  0  0  0  0  0  0
    2.9988   -0.8613    1.3754 O   0  0  0  0  0  0  0  0  0  0  0  0
    2.6597   -1.5072    2.6133 C   0  0  0  0  0  0  0  0  0  0  0  0
    1.7426   -2.6931    2.3941 C   0  0  0  0  0  0  0  0  0  0  0  0
    0.9487   -1.3818   -0.6483 S   0  0  0  0  0  0  0  0  0  0  0  0
    0.4783   -0.3137   -2.0368 C   0  0  0  0  0  0  0  0  0  0  0  0
   -0.4392    1.1716   -1.5541 S   0  0  0  0  0  0  0  0  0  0  0  0
   -2.1596    0.1558   -0.8675 P   0  0  0  0  0  0  0  0  0  0  0  0
   -2.7541   -1.3808   -1.9151 S   0  0  0  0  0  0  0  0  0  0  0  0
   -3.2715    1.2828   -0.8227 O   0  0  0  0  0  0  0  0  0  0  0  0
   -3.0663    2.6672   -0.4594 C   0  0  0  0  0  0  0  0  0  0  0  0
   -2.7167    2.8407    1.0038 C   0  0  0  0  0  0  0  0  0  0  0  0
   -1.7317   -0.1880    0.6315 O   0  0  0  0  0  0  0  0  0  0  0  0
   -2.2487   -1.3252    1.3416 C   0  0  0  0  0  0  0  0  0  0  0  0
   -3.7019   -1.1256    1.7180 C   0  0  0  0  0  0  0  0  0  0  0  0
    5.2816   -0.1342    0.4284 H   0  0  0  0  0  0  0  0  0  0  0  0
    6.0569    0.0233   -1.1568 H   0  0  0  0  0  0  0  0  0  0  0  0
    5.4573    1.4608   -0.3124 H   0  0  0  0  0  0  0  0  0  0  0  0
    3.7059   -0.8168   -1.3622 H   0  0  0  0  0  0  0  0  0  0  0  0
    3.9170    0.7763   -2.1565 H   0  0  0  0  0  0  0  0  0  0  0  0
    3.6218   -1.8146    3.0256 H   0  0  0  0  0  0  0  0  0  0  0  0
    2.1919   -0.7685    3.2727 H   0  0  0  0  0  0  0  0  0  0  0  0
    2.1867   -3.3906    1.6889 H   0  0  0  0  0  0  0  0  0  0  0  0
    1.5697   -3.1960    3.3400 H   0  0  0  0  0  0  0  0  0  0  0  0
    0.7879   -2.3558    1.9919 H   0  0  0  0  0  0  0  0  0  0  0  0
   -0.1485   -0.9313   -2.6821 H   0  0  0  0  0  0  0  0  0  0  0  0
    1.3634    0.0329   -2.5642 H   0  0  0  0  0  0  0  0  0  0  0  0
   -2.2812    3.0802   -1.0991 H   0  0  0  0  0  0  0  0  0  0  0  0
   -4.0227    3.1335   -0.7026 H   0  0  0  0  0  0  0  0  0  0  0  0
   -2.6521    3.9009    1.2279 H   0  0  0  0  0  0  0  0  0  0  0  0
   -3.4816    2.3897    1.6303 H   0  0  0  0  0  0  0  0  0  0  0  0
   -1.7571    2.3783    1.2303 H   0  0  0  0  0  0  0  0  0  0  0  0
   -2.1277   -2.2143    0.7136 H   0  0  0  0  0  0  0  0  0  0  0  0
   -1.6092   -1.3980    2.2232 H   0  0  0  0  0  0  0  0  0  0  0  0
   -3.8115   -0.2421    2.3413 H   0  0  0  0  0  0  0  0  0  0  0  0
   -4.2985   -0.9986    0.8144 H   0  0  0  0  0  0  0  0  0  0  0  0
   -4.0581   -1.9963    2.2593 H   0  0  0  0  0  0  0  0  0  0  0  0
  1  2  1  0  0  0  0
  2  3  1  0  0  0  0
  3  4  2  0  0  0  0
  4  5  2  0  0  0  0
  4  6  2  0  0  0  0
  6  7  1  0  0  0  0
  7  8  1  0  0  0  0
  4  9  1  0  0  0  0
  9 10  1  0  0  0  0
 10 11  1  0  0  0  0
 11 12  1  0  0  0  0
 12 13  2  0  0  0  0
 12 14  2  0  0  0  0
 14 15  1  0  0  0  0
 15 16  1  0  0  0  0
 12 17  1  0  0  0  0
 17 18  1  0  0  0  0
 18 19  1  0  0  0  0
  1 20  1  0  0  0  0
  1 21  1  0  0  0  0
  1 22  1  0  0  0  0
  2 23  1  0  0  0  0
  2 24  1  0  0  0  0
  7 25  1  0  0  0  0
  7 26  1  0  0  0  0
  8 27  1  0  0  0  0
  8 28  1  0  0  0  0
  8 29  1  0  0  0  0
 10 30  1  0  0  0  0
 10 31  1  0  0  0  0
 15 32  1  0  0  0  0
 15 33  1  0  0  0  0
 16 34  1  0  0  0  0
 16 35  1  0  0  0  0
 16 36  1  0  0  0  0
 18 37  1  0  0  0  0
 18 38  1  0  0  0  0
 19 39  1  0  0  0  0
 19 40  1  0  0  0  0
 19 41  1  0  0  0  0
M  END
