 xtb: 6.7.1 (edcfbbe)
          04092505213D

 41 40  0     0  0            999 V2000
    3.6199    1.7409   -1.1467 C   0  0  0  0  0  0  0  0  0  0  0  0
    3.7322    0.7895    0.0277 C   0  0  0  0  0  0  0  0  0  0  0  0
    3.0053   -0.4272   -0.2359 O   0  0  0  0  0  0  0  0  0  0  0  0
    1.7660   -0.9667    0.6067 P   0  0  0  0  0  0  0  0  0  0  0  0
    1.2552    0.1657    2.1267 S   0  0  0  0  0  0  0  0  0  0  0  0
    2.1242   -2.4628    1.0076 O   0  0  0  0  0  0  0  0  0  0  0  0
    2.7192   -2.7970    2.2751 C   0  0  0  0  0  0  0  0  0  0  0  0
    4.1531   -2.3146    2.3644 C   0  0  0  0  0  0  0  0  0  0  0  0
    0.4283   -1.5608   -0.9138 S   0  0  0  0  0  0  0  0  0  0  0  0
    0.4628   -0.0688   -1.9481 C   0  0  0  0  0  0  0  0  0  0  0  0
   -0.0041    1.4362   -1.0444 S   0  0  0  0  0  0  0  0  0  0  0  0
   -1.9753    0.8610   -0.5963 P   0  0  0  0  0  0  0  0  0  0  0  0
   -2.9225   -0.1485   -1.9890 S   0  0  0  0  0  0  0  0  0  0  0  0
   -2.6490    2.2247   -0.1349 O   0  0  0  0  0  0  0  0  0  0  0  0
   -3.0252    3.2573   -1.0722 C   0  0  0  0  0  0  0  0  0  0  0  0
   -4.4877    3.1325   -1.4523 C   0  0  0  0  0  0  0  0  0  0  0  0
   -1.8041    0.1277    0.7920 O   0  0  0  0  0  0  0  0  0  0  0  0
   -2.7569   -0.8231    1.3161 C   0  0  0  0  0  0  0  0  0  0  0  0
   -1.9997   -1.9200    2.0366 C   0  0  0  0  0  0  0  0  0  0  0  0
    2.5924    2.0808   -1.2664 H   0  0  0  0  0  0  0  0  0  0  0  0
    4.2539    2.6017   -0.9608 H   0  0  0  0  0  0  0  0  0  0  0  0
    3.9459    1.2500   -2.0596 H   0  0  0  0  0  0  0  0  0  0  0  0
    3.3384    1.2453    0.9428 H   0  0  0  0  0  0  0  0  0  0  0  0
    4.7685    0.4837    0.1867 H   0  0  0  0  0  0  0  0  0  0  0  0
    2.1139   -2.3534    3.0725 H   0  0  0  0  0  0  0  0  0  0  0  0
    2.6528   -3.8848    2.3189 H   0  0  0  0  0  0  0  0  0  0  0  0
    4.7231   -2.6755    1.5122 H   0  0  0  0  0  0  0  0  0  0  0  0
    4.1748   -1.2253    2.3732 H   0  0  0  0  0  0  0  0  0  0  0  0
    4.6015   -2.6832    3.2816 H   0  0  0  0  0  0  0  0  0  0  0  0
   -0.2541   -0.2455   -2.7504 H   0  0  0  0  0  0  0  0  0  0  0  0
    1.4650    0.0904   -2.3383 H   0  0  0  0  0  0  0  0  0  0  0  0
   -2.8278    4.1917   -0.5437 H   0  0  0  0  0  0  0  0  0  0  0  0
   -2.3830    3.1946   -1.9552 H   0  0  0  0  0  0  0  0  0  0  0  0
   -4.6628    2.1937   -1.9731 H   0  0  0  0  0  0  0  0  0  0  0  0
   -5.1084    3.1601   -0.5611 H   0  0  0  0  0  0  0  0  0  0  0  0
   -4.7580    3.9560   -2.1053 H   0  0  0  0  0  0  0  0  0  0  0  0
   -3.4119   -0.2778    1.9989 H   0  0  0  0  0  0  0  0  0  0  0  0
   -3.3468   -1.2244    0.4844 H   0  0  0  0  0  0  0  0  0  0  0  0
   -2.7086   -2.5965    2.5024 H   0  0  0  0  0  0  0  0  0  0  0  0
   -1.3800   -2.4761    1.3356 H   0  0  0  0  0  0  0  0  0  0  0  0
   -1.3598   -1.4836    2.7998 H   0  0  0  0  0  0  0  0  0  0  0  0
  1  2  1  0  0  0  0
  2  3  1  0  0  0  0
  3  4  2  0  0  0  0
  4  5  2  0  0  0  0
  4  6  2  0  0  0  0
  6  7  1  0  0  0  0
  7  8  1  0  0  0  0
  4  9  1  0  0  0  0
  9 10  1  0  0  0  0
 10 11  1  0  0  0  0
 11 12  1  0  0  0  0
 12 13  2  0  0  0  0
 12 14  2  0  0  0  0
 14 15  1  0  0  0  0
 15 16  1  0  0  0  0
 12 17  2  0  0  0  0
 17 18  1  0  0  0  0
 18 19  1  0  0  0  0
  1 20  1  0  0  0  0
  1 21  1  0  0  0  0
  1 22  1  0  0  0  0
  2 23  1  0  0  0  0
  2 24  1  0  0  0  0
  7 25  1  0  0  0  0
  7 26  1  0  0  0  0
  8 27  1  0  0  0  0
  8 28  1  0  0  0  0
  8 29  1  0  0  0  0
 10 30  1  0  0  0  0
 10 31  1  0  0  0  0
 15 32  1  0  0  0  0
 15 33  1  0  0  0  0
 16 34  1  0  0  0  0
 16 35  1  0  0  0  0
 16 36  1  0  0  0  0
 18 37  1  0  0  0  0
 18 38  1  0  0  0  0
 19 39  1  0  0  0  0
 19 40  1  0  0  0  0
 19 41  1  0  0  0  0
M  END
