 xtb: 6.7.1 (edcfbbe)
          04092505213D

 41 40  0     0  0            999 V2000
    3.1637   -3.3381   -0.0345 C   0  0  0  0  0  0  0  0  0  0  0  0
    3.2714   -1.9113    0.4600 C   0  0  0  0  0  0  0  0  0  0  0  0
    2.3350   -1.1157   -0.3084 O   0  0  0  0  0  0  0  0  0  0  0  0
    2.3581    0.4596   -0.2156 P   0  0  0  0  0  0  0  0  0  0  0  0
    4.0944    1.3295   -0.4978 S   0  0  0  0  0  0  0  0  0  0  0  0
    1.7759    0.7144    1.2566 O   0  0  0  0  0  0  0  0  0  0  0  0
    1.9567    1.9822    1.9046 C   0  0  0  0  0  0  0  0  0  0  0  0
    1.0941    3.0579    1.2746 C   0  0  0  0  0  0  0  0  0  0  0  0
    0.8128    0.9346   -1.5794 S   0  0  0  0  0  0  0  0  0  0  0  0
    0.0406   -0.6860   -1.9015 C   0  0  0  0  0  0  0  0  0  0  0  0
   -0.6842   -1.4839   -0.4574 S   0  0  0  0  0  0  0  0  0  0  0  0
   -2.1998   -0.0320   -0.0481 P   0  0  0  0  0  0  0  0  0  0  0  0
   -2.7561    1.1193   -1.5263 S   0  0  0  0  0  0  0  0  0  0  0  0
   -1.6294    0.7762    1.1851 O   0  0  0  0  0  0  0  0  0  0  0  0
   -1.3432    0.1261    2.4492 C   0  0  0  0  0  0  0  0  0  0  0  0
   -2.4423    0.4110    3.4516 C   0  0  0  0  0  0  0  0  0  0  0  0
   -3.3612   -0.8833    0.6309 O   0  0  0  0  0  0  0  0  0  0  0  0
   -4.4108   -1.5004   -0.1347 C   0  0  0  0  0  0  0  0  0  0  0  0
   -3.8967   -2.5991   -1.0422 C   0  0  0  0  0  0  0  0  0  0  0  0
    3.4511   -3.3962   -1.0803 H   0  0  0  0  0  0  0  0  0  0  0  0
    3.8236   -3.9681    0.5527 H   0  0  0  0  0  0  0  0  0  0  0  0
    2.1400   -3.6871    0.0707 H   0  0  0  0  0  0  0  0  0  0  0  0
    4.2755   -1.4999    0.3132 H   0  0  0  0  0  0  0  0  0  0  0  0
    3.0003   -1.8300    1.5149 H   0  0  0  0  0  0  0  0  0  0  0  0
    1.6877    1.8006    2.9462 H   0  0  0  0  0  0  0  0  0  0  0  0
    3.0155    2.2556    1.8391 H   0  0  0  0  0  0  0  0  0  0  0  0
    1.1854    3.9782    1.8420 H   0  0  0  0  0  0  0  0  0  0  0  0
    1.4237    3.2395    0.2504 H   0  0  0  0  0  0  0  0  0  0  0  0
    0.0508    2.7499    1.2487 H   0  0  0  0  0  0  0  0  0  0  0  0
    0.7765   -1.3730   -2.3079 H   0  0  0  0  0  0  0  0  0  0  0  0
   -0.7417   -0.4608   -2.6266 H   0  0  0  0  0  0  0  0  0  0  0  0
   -1.2284   -0.9480    2.2784 H   0  0  0  0  0  0  0  0  0  0  0  0
   -0.3895    0.5448    2.7727 H   0  0  0  0  0  0  0  0  0  0  0  0
   -2.1723   -0.0256    4.4080 H   0  0  0  0  0  0  0  0  0  0  0  0
   -2.5701    1.4836    3.5691 H   0  0  0  0  0  0  0  0  0  0  0  0
   -3.3810   -0.0186    3.1126 H   0  0  0  0  0  0  0  0  0  0  0  0
   -5.0904   -1.8916    0.6238 H   0  0  0  0  0  0  0  0  0  0  0  0
   -4.9122   -0.7228   -0.7188 H   0  0  0  0  0  0  0  0  0  0  0  0
   -4.7397   -3.1154   -1.4900 H   0  0  0  0  0  0  0  0  0  0  0  0
   -3.2859   -2.1712   -1.8356 H   0  0  0  0  0  0  0  0  0  0  0  0
   -3.2964   -3.3084   -0.4781 H   0  0  0  0  0  0  0  0  0  0  0  0
  1  2  1  0  0  0  0
  2  3  1  0  0  0  0
  3  4  2  0  0  0  0
  4  5  2  0  0  0  0
  4  6  1  0  0  0  0
  6  7  1  0  0  0  0
  7  8  1  0  0  0  0
  4  9  1  0  0  0  0
  9 10  1  0  0  0  0
 10 11  1  0  0  0  0
 11 12  1  0  0  0  0
 12 13  2  0  0  0  0
 12 14  2  0  0  0  0
 14 15  1  0  0  0  0
 15 16  1  0  0  0  0
 12 17  2  0  0  0  0
 17 18  1  0  0  0  0
 18 19  1  0  0  0  0
  1 20  1  0  0  0  0
  1 21  1  0  0  0  0
  1 22  1  0  0  0  0
  2 23  1  0  0  0  0
  2 24  1  0  0  0  0
  7 25  1  0  0  0  0
  7 26  1  0  0  0  0
  8 27  1  0  0  0  0
  8 28  1  0  0  0  0
  8 29  1  0  0  0  0
 10 30  1  0  0  0  0
 10 31  1  0  0  0  0
 15 32  1  0  0  0  0
 15 33  1  0  0  0  0
 16 34  1  0  0  0  0
 16 35  1  0  0  0  0
 16 36  1  0  0  0  0
 18 37  1  0  0  0  0
 18 38  1  0  0  0  0
 19 39  1  0  0  0  0
 19 40  1  0  0  0  0
 19 41  1  0  0  0  0
M  END
