41
 xtb: 6.7.1 (edcfbbe)
C            4.53732377652698       -0.60484262667861       -2.59613035383568
C            4.69889130178265       -1.23442414825180       -1.23521065543219
O            3.40372005261933       -1.54100813866089       -0.61217320772111
P            2.50098031012214       -0.43341432387391        0.13118908015626
S            3.42350623453790        1.07992770880169        0.94158248791661
O            1.62723417473509       -1.35320918409843        1.11926527307994
C            2.07035593921878       -1.63841844012111        2.49347749594839
C            3.25128584205911       -2.57729593173661        2.52596719644213
S            1.08549223553088        0.01744109389517       -1.37816894454201
C            0.33520992682990        1.54723599665916       -0.69243096338093
S           -0.76391704325280        1.35073418593727        0.76363346077295
P           -2.63232801752272        0.86477784008817       -0.13486023531013
S           -2.60415874902212        0.45351862113985       -2.03724441562279
O           -3.49035617528472        2.14342222274562        0.33064193541834
C           -4.82631652228331        2.41211209068850       -0.23345586707776
C           -5.86403470855821        1.41294127177076        0.21647156071968
O           -3.22999824673671       -0.26707251360961        0.84440138442909
C           -3.11843051061935       -1.70163448840157        0.55037941093382
C           -1.71942086937795       -2.22528144589887        0.76351979684563
H            3.91533003382683       -1.22793965786105       -3.24534682967059
H            4.09629425466343        0.39377160789411       -2.52962029019492
H            5.52712885134637       -0.51056093427810       -3.05478676094602
H            5.26606303169110       -0.59538532130688       -0.55189952097447
H            5.18683105178245       -2.20909735843348       -1.29881487814749
H            2.28841827026809       -0.68597822704408        2.98642399206577
H            1.18715237145387       -2.08457444768051        2.95504608718251
H            3.03419618948832       -3.49957086171788        1.97964613307891
H            4.14865264748276       -2.11455026990921        2.10407303425701
H            3.46074143569861       -2.83511952009535        3.56933123641415
H           -0.21486407319777        2.00505379464968       -1.51794802259570
H            1.13517607187734        2.22151973929391       -0.37285506801593
H           -5.05178797530163        3.41521830300558        0.13301037007100
H           -4.73241668938777        2.44353212170562       -1.32334409010107
H           -5.89758421878170        1.34380755294016        1.30747508309953
H           -6.84230842452337        1.75507492264316       -0.13731541649508
H           -5.68216875006853        0.41811076614034       -0.19982727582057
H           -3.82977049408623       -2.15805607449622        1.24163718946185
H           -3.46312943050034       -1.86569549066371       -0.47530602876512
H           -1.36657282846783       -2.00760314526352        1.77578463690872
H           -1.73224379234472       -3.31184565328490        0.62759741021427
H           -1.01658798457689       -1.79988526539134        0.04185765946927
