 xtb: 6.7.1 (edcfbbe)
          04092509483D

 38 37  0     0  0            999 V2000
    5.0822   -2.4663   -0.7268 C   0  0  0  0  0  0  0  0  0  0  0  0
    3.7435   -2.9827   -1.2301 C   0  0  0  0  0  0  0  0  0  0  0  0
    2.9385   -1.9043   -1.7466 O   0  0  0  0  0  0  0  0  0  0  0  0
    2.2384   -1.1669   -0.9114 C   0  0  0  0  0  0  0  0  0  0  0  0
    2.1653   -1.3471    0.2870 O   0  0  0  0  0  0  0  0  0  0  0  0
    1.5371   -0.0364   -1.6367 C   0  0  0  0  0  0  0  0  0  0  0  0
    0.3512    0.4706   -0.8296 C   0  0  0  0  0  0  0  0  0  0  0  0
   -0.0688    1.3747   -1.2828 H   0  0  0  0  0  0  0  0  0  0  0  0
    0.7280    0.8218    0.6009 C   0  0  0  0  0  0  0  0  0  0  0  0
    0.0628    0.4975    1.5627 O   0  0  0  0  0  0  0  0  0  0  0  0
    1.7900    1.5884    0.6284 O   0  0  0  0  0  0  0  0  0  0  0  0
    2.2654    2.0897    1.8963 C   0  0  0  0  0  0  0  0  0  0  0  0
    3.3701    3.0914    1.6143 C   0  0  0  0  0  0  0  0  0  0  0  0
   -0.9658   -0.7954   -0.8137 S   0  0  0  0  0  0  0  0  0  0  0  0
   -2.4763    0.2669    0.2195 P   0  0  0  0  0  0  0  0  0  0  0  0
   -2.4062    2.2172    0.1250 S   0  0  0  0  0  0  0  0  0  0  0  0
   -3.8001   -0.3702   -0.4342 O   0  0  0  0  0  0  0  0  0  0  0  0
   -4.2437   -0.0544   -1.7592 C   0  0  0  0  0  0  0  0  0  0  0  0
   -2.6357   -0.2949    1.6871 O   0  0  0  0  0  0  0  0  0  0  0  0
   -2.5027   -1.6956    1.9889 C   0  0  0  0  0  0  0  0  0  0  0  0
    4.9287   -1.7815    0.1043 H   0  0  0  0  0  0  0  0  0  0  0  0
    5.6857   -3.3011   -0.3861 H   0  0  0  0  0  0  0  0  0  0  0  0
    5.6068   -1.9462   -1.5236 H   0  0  0  0  0  0  0  0  0  0  0  0
    3.1917   -3.4825   -0.4293 H   0  0  0  0  0  0  0  0  0  0  0  0
    3.8709   -3.6540   -2.0796 H   0  0  0  0  0  0  0  0  0  0  0  0
    1.2175   -0.3815   -2.6189 H   0  0  0  0  0  0  0  0  0  0  0  0
    2.2588    0.7736   -1.7614 H   0  0  0  0  0  0  0  0  0  0  0  0
    1.4242    2.5471    2.4266 H   0  0  0  0  0  0  0  0  0  0  0  0
    2.6266    1.2388    2.4816 H   0  0  0  0  0  0  0  0  0  0  0  0
    4.1727    2.6161    1.0585 H   0  0  0  0  0  0  0  0  0  0  0  0
    2.9835    3.9236    1.0333 H   0  0  0  0  0  0  0  0  0  0  0  0
    3.7618    3.4657    2.5545 H   0  0  0  0  0  0  0  0  0  0  0  0
   -4.3080    1.0274   -1.8838 H   0  0  0  0  0  0  0  0  0  0  0  0
   -5.2294   -0.5054   -1.8503 H   0  0  0  0  0  0  0  0  0  0  0  0
   -3.5603   -0.4761   -2.4958 H   0  0  0  0  0  0  0  0  0  0  0  0
   -1.4534   -1.9808    1.9078 H   0  0  0  0  0  0  0  0  0  0  0  0
   -3.1134   -2.2899    1.3108 H   0  0  0  0  0  0  0  0  0  0  0  0
   -2.8463   -1.8005    3.0144 H   0  0  0  0  0  0  0  0  0  0  0  0
  1  2  1  0  0  0  0
  2  3  1  0  0  0  0
  3  4  1  0  0  0  0
  4  5  2  0  0  0  0
  4  6  1  0  0  0  0
  6  7  1  0  0  0  0
  7  8  1  0  0  0  0
  7  9  1  0  0  0  0
  9 10  2  0  0  0  0
  9 11  4  0  0  0  0
 11 12  1  0  0  0  0
 12 13  1  0  0  0  0
  7 14  1  0  0  0  0
 14 15  1  0  0  0  0
 15 16  2  0  0  0  0
 15 17  1  0  0  0  0
 17 18  1  0  0  0  0
 15 19  2  0  0  0  0
 19 20  1  0  0  0  0
  1 21  1  0  0  0  0
  1 22  1  0  0  0  0
  1 23  1  0  0  0  0
  2 24  1  0  0  0  0
  2 25  1  0  0  0  0
  6 26  1  0  0  0  0
  6 27  1  0  0  0  0
 12 28  1  0  0  0  0
 12 29  1  0  0  0  0
 13 30  1  0  0  0  0
 13 31  1  0  0  0  0
 13 32  1  0  0  0  0
 18 33  1  0  0  0  0
 18 34  1  0  0  0  0
 18 35  1  0  0  0  0
 20 36  1  0  0  0  0
 20 37  1  0  0  0  0
 20 38  1  0  0  0  0
M  END
