 xtb: 6.7.1 (edcfbbe)
          04092505213D

 41 40  0     0  0            999 V2000
    1.8181    0.2651   -3.4924 C   0  0  0  0  0  0  0  0  0  0  0  0
    2.5285    0.2966   -2.1557 C   0  0  0  0  0  0  0  0  0  0  0  0
    1.7693   -0.5109   -1.2314 O   0  0  0  0  0  0  0  0  0  0  0  0
    2.0809   -0.5096    0.3256 P   0  0  0  0  0  0  0  0  0  0  0  0
    2.4877    1.2524    1.0968 S   0  0  0  0  0  0  0  0  0  0  0  0
    3.2684   -1.5718    0.3463 O   0  0  0  0  0  0  0  0  0  0  0  0
    3.7323   -2.3100    1.4921 C   0  0  0  0  0  0  0  0  0  0  0  0
    3.9940   -1.4376    2.7018 C   0  0  0  0  0  0  0  0  0  0  0  0
    0.4521   -1.5812    1.1026 S   0  0  0  0  0  0  0  0  0  0  0  0
   -0.5185   -0.2217    1.8539 C   0  0  0  0  0  0  0  0  0  0  0  0
   -2.2563   -0.2429    1.3619 S   0  0  0  0  0  0  0  0  0  0  0  0
   -2.1380    0.6871   -0.5508 P   0  0  0  0  0  0  0  0  0  0  0  0
   -0.5197    1.7601   -0.8698 S   0  0  0  0  0  0  0  0  0  0  0  0
   -3.5111    1.4498   -0.7039 O   0  0  0  0  0  0  0  0  0  0  0  0
   -3.6836    2.8129   -0.2778 C   0  0  0  0  0  0  0  0  0  0  0  0
   -3.6223    2.9584    1.2298 C   0  0  0  0  0  0  0  0  0  0  0  0
   -2.4695   -0.4185   -1.6340 O   0  0  0  0  0  0  0  0  0  0  0  0
   -1.5817   -1.4913   -2.0022 C   0  0  0  0  0  0  0  0  0  0  0  0
   -1.9876   -2.7851   -1.3222 C   0  0  0  0  0  0  0  0  0  0  0  0
    0.8281    0.7039   -3.3943 H   0  0  0  0  0  0  0  0  0  0  0  0
    2.3912    0.8403   -4.2120 H   0  0  0  0  0  0  0  0  0  0  0  0
    1.7218   -0.7598   -3.8385 H   0  0  0  0  0  0  0  0  0  0  0  0
    2.5849    1.3156   -1.7572 H   0  0  0  0  0  0  0  0  0  0  0  0
    3.5366   -0.1201   -2.2235 H   0  0  0  0  0  0  0  0  0  0  0  0
    2.9864   -3.0761    1.7210 H   0  0  0  0  0  0  0  0  0  0  0  0
    4.6499   -2.7824    1.1364 H   0  0  0  0  0  0  0  0  0  0  0  0
    4.6840   -0.6352    2.4511 H   0  0  0  0  0  0  0  0  0  0  0  0
    3.0651   -0.9914    3.0540 H   0  0  0  0  0  0  0  0  0  0  0  0
    4.4197   -2.0436    3.4951 H   0  0  0  0  0  0  0  0  0  0  0  0
   -0.0522    0.7266    1.5724 H   0  0  0  0  0  0  0  0  0  0  0  0
   -0.5139   -0.3599    2.9317 H   0  0  0  0  0  0  0  0  0  0  0  0
   -2.9139    3.4278   -0.7556 H   0  0  0  0  0  0  0  0  0  0  0  0
   -4.6660    3.0831   -0.6676 H   0  0  0  0  0  0  0  0  0  0  0  0
   -2.6100    2.7673    1.5837 H   0  0  0  0  0  0  0  0  0  0  0  0
   -3.9022    3.9709    1.5030 H   0  0  0  0  0  0  0  0  0  0  0  0
   -4.3009    2.2545    1.7048 H   0  0  0  0  0  0  0  0  0  0  0  0
   -1.6826   -1.5711   -3.0868 H   0  0  0  0  0  0  0  0  0  0  0  0
   -0.5492   -1.2172   -1.7617 H   0  0  0  0  0  0  0  0  0  0  0  0
   -1.3703   -3.5925   -1.7028 H   0  0  0  0  0  0  0  0  0  0  0  0
   -1.8512   -2.7188   -0.2452 H   0  0  0  0  0  0  0  0  0  0  0  0
   -3.0318   -2.9980   -1.5325 H   0  0  0  0  0  0  0  0  0  0  0  0
  1  2  1  0  0  0  0
  2  3  1  0  0  0  0
  3  4  2  0  0  0  0
  4  5  2  0  0  0  0
  4  6  2  0  0  0  0
  6  7  1  0  0  0  0
  7  8  1  0  0  0  0
  4  9  1  0  0  0  0
  9 10  1  0  0  0  0
 10 11  1  0  0  0  0
 11 12  1  0  0  0  0
 12 13  2  0  0  0  0
 12 14  2  0  0  0  0
 14 15  1  0  0  0  0
 15 16  1  0  0  0  0
 12 17  2  0  0  0  0
 17 18  1  0  0  0  0
 18 19  1  0  0  0  0
  1 20  1  0  0  0  0
  1 21  1  0  0  0  0
  1 22  1  0  0  0  0
  2 23  1  0  0  0  0
  2 24  1  0  0  0  0
  7 25  1  0  0  0  0
  7 26  1  0  0  0  0
  8 27  1  0  0  0  0
  8 28  1  0  0  0  0
  8 29  1  0  0  0  0
 10 30  1  0  0  0  0
 10 31  1  0  0  0  0
 15 32  1  0  0  0  0
 15 33  1  0  0  0  0
 16 34  1  0  0  0  0
 16 35  1  0  0  0  0
 16 36  1  0  0  0  0
 18 37  1  0  0  0  0
 18 38  1  0  0  0  0
 19 39  1  0  0  0  0
 19 40  1  0  0  0  0
 19 41  1  0  0  0  0
M  END
