 xtb: 6.7.1 (edcfbbe)
          04092507313D

 38 37  0     0  0            999 V2000
    5.4213   -1.2725   -0.4636 C   0  0  0  0  0  0  0  0  0  0  0  0
    4.7176   -1.8765   -1.6682 C   0  0  0  0  0  0  0  0  0  0  0  0
    3.3643   -2.2298   -1.3239 O   0  0  0  0  0  0  0  0  0  0  0  0
    2.3983   -1.3773   -1.5952 C   0  0  0  0  0  0  0  0  0  0  0  0
    2.5388   -0.3339   -2.1961 O   0  0  0  0  0  0  0  0  0  0  0  0
    1.0556   -1.8940   -1.1071 C   0  0  0  0  0  0  0  0  0  0  0  0
    0.2782   -0.7306   -0.5102 C   0  0  0  0  0  0  0  0  0  0  0  0
    0.1575    0.0633   -1.2623 H   0  0  0  0  0  0  0  0  0  0  0  0
    1.0356   -0.1012    0.6434 C   0  0  0  0  0  0  0  0  0  0  0  0
    2.2354   -0.1857    0.7679 O   0  0  0  0  0  0  0  0  0  0  0  0
    0.2321    0.5472    1.4604 O   0  0  0  0  0  0  0  0  0  0  0  0
    0.8117    1.2993    2.5464 C   0  0  0  0  0  0  0  0  0  0  0  0
    1.1813    2.7001    2.0911 C   0  0  0  0  0  0  0  0  0  0  0  0
   -1.3887   -1.2409    0.0103 S   0  0  0  0  0  0  0  0  0  0  0  0
   -2.2682    0.6942    0.1833 P   0  0  0  0  0  0  0  0  0  0  0  0
   -1.4330    2.1410   -0.8378 S   0  0  0  0  0  0  0  0  0  0  0  0
   -3.7852    0.3906   -0.2347 O   0  0  0  0  0  0  0  0  0  0  0  0
   -4.1352    0.0724   -1.5853 C   0  0  0  0  0  0  0  0  0  0  0  0
   -2.4692    1.0312    1.7119 O   0  0  0  0  0  0  0  0  0  0  0  0
   -3.1590    0.1350    2.6064 C   0  0  0  0  0  0  0  0  0  0  0  0
    4.8793   -0.3913   -0.1263 H   0  0  0  0  0  0  0  0  0  0  0  0
    5.4525   -1.9911    0.3503 H   0  0  0  0  0  0  0  0  0  0  0  0
    6.4322   -0.9895   -0.7371 H   0  0  0  0  0  0  0  0  0  0  0  0
    5.1841   -2.8126   -1.9769 H   0  0  0  0  0  0  0  0  0  0  0  0
    4.6910   -1.1686   -2.5016 H   0  0  0  0  0  0  0  0  0  0  0  0
    1.2216   -2.6811   -0.3728 H   0  0  0  0  0  0  0  0  0  0  0  0
    0.5076   -2.3016   -1.9577 H   0  0  0  0  0  0  0  0  0  0  0  0
    0.0315    1.3222    3.3070 H   0  0  0  0  0  0  0  0  0  0  0  0
    1.6906    0.7566    2.9049 H   0  0  0  0  0  0  0  0  0  0  0  0
    0.3110    3.1949    1.6657 H   0  0  0  0  0  0  0  0  0  0  0  0
    1.5420    3.2720    2.9393 H   0  0  0  0  0  0  0  0  0  0  0  0
    1.9600    2.6568    1.3323 H   0  0  0  0  0  0  0  0  0  0  0  0
   -3.7917   -0.9326   -1.8301 H   0  0  0  0  0  0  0  0  0  0  0  0
   -3.6902    0.7962   -2.2700 H   0  0  0  0  0  0  0  0  0  0  0  0
   -5.2199    0.1280   -1.6281 H   0  0  0  0  0  0  0  0  0  0  0  0
   -3.0875    0.5999    3.5863 H   0  0  0  0  0  0  0  0  0  0  0  0
   -2.6730   -0.8407    2.6031 H   0  0  0  0  0  0  0  0  0  0  0  0
   -4.1989    0.0343    2.3025 H   0  0  0  0  0  0  0  0  0  0  0  0
  1  2  1  0  0  0  0
  2  3  1  0  0  0  0
  3  4  1  0  0  0  0
  4  5  2  0  0  0  0
  4  6  1  0  0  0  0
  6  7  1  0  0  0  0
  7  8  1  0  0  0  0
  7  9  1  0  0  0  0
  9 10  2  0  0  0  0
  9 11  1  0  0  0  0
 11 12  1  0  0  0  0
 12 13  1  0  0  0  0
  7 14  1  0  0  0  0
 14 15  1  0  0  0  0
 15 16  2  0  0  0  0
 15 17  1  0  0  0  0
 17 18  1  0  0  0  0
 15 19  2  0  0  0  0
 19 20  1  0  0  0  0
  1 21  1  0  0  0  0
  1 22  1  0  0  0  0
  1 23  1  0  0  0  0
  2 24  1  0  0  0  0
  2 25  1  0  0  0  0
  6 26  1  0  0  0  0
  6 27  1  0  0  0  0
 12 28  1  0  0  0  0
 12 29  1  0  0  0  0
 13 30  1  0  0  0  0
 13 31  1  0  0  0  0
 13 32  1  0  0  0  0
 18 33  1  0  0  0  0
 18 34  1  0  0  0  0
 18 35  1  0  0  0  0
 20 36  1  0  0  0  0
 20 37  1  0  0  0  0
 20 38  1  0  0  0  0
M  END
