41
 xtb: 6.7.1 (edcfbbe)
C            4.66011338853789       -0.96062595830063       -2.29087576683280
C            4.65357257979002       -1.35517637984097       -0.83538371529157
O            3.28938979245870       -1.54042061919528       -0.32017291483726
P            2.33973557874396       -0.31288836572821        0.11129805456675
S            3.20662664219861        1.31847609264214        0.72798348871665
O            1.34094064189261       -1.03616032061699        1.14091404595704
C            1.61195469224571       -1.06250778974184        2.58615822145486
C            2.76178491204423       -1.97737263303629        2.93025970099326
S            1.10616587069619       -0.13633095976645       -1.60115784024325
C            0.29323896549990        1.47617205960851       -1.27336009267570
S           -0.88007764010945        1.55403595583688        0.13358064823416
P           -2.46701980552179        0.33801252942723       -0.59356947692263
S           -2.82814197663965        0.49459608910164       -2.49701463362823
O           -3.62926791808408        0.73661763274168        0.44577202243887
C           -4.31311932083188        2.03611209474409        0.36468316890753
C           -5.53827398576365        1.94898683282484        1.23655607042767
O           -2.17827236692476       -1.18106185930954       -0.18121079041867
C           -1.94970806620181       -1.59488018610094        1.21752031264288
C           -3.17886749395041       -2.28405114319772        1.75355389733256
H            5.69736651054976       -0.94406522852275       -2.64097897274003
H            4.10394542838945       -1.68250022757807       -2.89598668024478
H            4.23488493837277        0.03560703429588       -2.44161843247184
H            5.15971314069446       -0.61630157528293       -0.20707800179427
H            5.11718057077254       -2.33164367579072       -0.68159035273359
H            1.78825802264665       -0.03512686183642        2.91974340224138
H            0.67181520194743       -1.41881708369902        3.01297152414623
H            3.71065203471286       -1.60150646116720        2.53552802194971
H            2.84667254649712       -2.03493907494509        4.02033162253070
H            2.58875543043379       -2.98579850889582        2.54364282856634
H           -0.23051135766969        1.73446678149931       -2.19848876693456
H            1.05681498569083        2.23043202778455       -1.06151628957879
H           -3.61971989097942        2.80783917314150        0.71330360209880
H           -4.57119454014771        2.22584354341381       -0.68196353974372
H           -6.06275564913440        2.90879475505994        1.20490736691528
H           -6.21775101845899        1.17078202802688        0.87784731859598
H           -5.26638207076231        1.73788247047150        2.27460469040229
H           -1.09545865566528       -2.27291543961253        1.16612922524641
H           -1.67053869148811       -0.72209961938423        1.81600234691795
H           -4.03008764063897       -1.60038440113902        1.80582412722645
H           -3.44593945068053       -3.14258188096007        1.13076977118991
H           -2.96374518357980       -2.64719240862923        2.76396697503043
