 xtb: 6.7.1 (edcfbbe)
          04092505213D

 41 40  0     0  0            999 V2000
    2.6478   -1.6811   -2.5856 C   0  0  0  0  0  0  0  0  0  0  0  0
    2.8604   -0.1908   -2.4222 C   0  0  0  0  0  0  0  0  0  0  0  0
    2.0173    0.3901   -1.3898 O   0  0  0  0  0  0  0  0  0  0  0  0
    2.0668   -0.0104    0.1319 P   0  0  0  0  0  0  0  0  0  0  0  0
    1.5147    1.4255    1.3480 S   0  0  0  0  0  0  0  0  0  0  0  0
    3.5868   -0.4522    0.2947 O   0  0  0  0  0  0  0  0  0  0  0  0
    4.1180   -0.8080    1.5853 C   0  0  0  0  0  0  0  0  0  0  0  0
    5.6300   -0.7936    1.4856 C   0  0  0  0  0  0  0  0  0  0  0  0
    1.0025   -1.8465    0.3712 S   0  0  0  0  0  0  0  0  0  0  0  0
   -0.2915   -1.3927    1.5573 C   0  0  0  0  0  0  0  0  0  0  0  0
   -1.9541   -1.4594    0.8403 S   0  0  0  0  0  0  0  0  0  0  0  0
   -2.0616    0.5595    0.1740 P   0  0  0  0  0  0  0  0  0  0  0  0
   -1.9294    1.9169    1.5759 S   0  0  0  0  0  0  0  0  0  0  0  0
   -3.4267    0.5671   -0.6329 O   0  0  0  0  0  0  0  0  0  0  0  0
   -4.6914    0.5274    0.0612 C   0  0  0  0  0  0  0  0  0  0  0  0
   -5.7701    0.9512   -0.9146 C   0  0  0  0  0  0  0  0  0  0  0  0
   -0.9754    0.6845   -0.9663 O   0  0  0  0  0  0  0  0  0  0  0  0
   -1.1178   -0.0275   -2.2272 C   0  0  0  0  0  0  0  0  0  0  0  0
   -1.7216    0.8721   -3.2839 C   0  0  0  0  0  0  0  0  0  0  0  0
    1.6112   -1.9066   -2.8218 H   0  0  0  0  0  0  0  0  0  0  0  0
    3.2809   -2.0380   -3.3921 H   0  0  0  0  0  0  0  0  0  0  0  0
    2.9149   -2.2035   -1.6686 H   0  0  0  0  0  0  0  0  0  0  0  0
    2.5706    0.3620   -3.3172 H   0  0  0  0  0  0  0  0  0  0  0  0
    3.8993    0.0280   -2.1715 H   0  0  0  0  0  0  0  0  0  0  0  0
    3.7560   -0.0842    2.3232 H   0  0  0  0  0  0  0  0  0  0  0  0
    3.7445   -1.8025    1.8449 H   0  0  0  0  0  0  0  0  0  0  0  0
    5.9603   -1.5005    0.7304 H   0  0  0  0  0  0  0  0  0  0  0  0
    5.9766    0.2002    1.2164 H   0  0  0  0  0  0  0  0  0  0  0  0
    6.0516   -1.0703    2.4462 H   0  0  0  0  0  0  0  0  0  0  0  0
   -0.0955   -0.3806    1.9274 H   0  0  0  0  0  0  0  0  0  0  0  0
   -0.2702   -2.1205    2.3636 H   0  0  0  0  0  0  0  0  0  0  0  0
   -4.8498   -0.4942    0.4165 H   0  0  0  0  0  0  0  0  0  0  0  0
   -4.6357    1.2016    0.9221 H   0  0  0  0  0  0  0  0  0  0  0  0
   -5.5858    1.9653   -1.2582 H   0  0  0  0  0  0  0  0  0  0  0  0
   -5.7815    0.2826   -1.7704 H   0  0  0  0  0  0  0  0  0  0  0  0
   -6.7329    0.9133   -0.4160 H   0  0  0  0  0  0  0  0  0  0  0  0
   -0.0992   -0.3142   -2.4897 H   0  0  0  0  0  0  0  0  0  0  0  0
   -1.7268   -0.9204   -2.0622 H   0  0  0  0  0  0  0  0  0  0  0  0
   -2.7348    1.1517   -3.0085 H   0  0  0  0  0  0  0  0  0  0  0  0
   -1.1248    1.7748   -3.3853 H   0  0  0  0  0  0  0  0  0  0  0  0
   -1.7388    0.3419   -4.2311 H   0  0  0  0  0  0  0  0  0  0  0  0
  1  2  1  0  0  0  0
  2  3  1  0  0  0  0
  3  4  2  0  0  0  0
  4  5  2  0  0  0  0
  4  6  2  0  0  0  0
  6  7  1  0  0  0  0
  7  8  1  0  0  0  0
  4  9  1  0  0  0  0
  9 10  1  0  0  0  0
 10 11  1  0  0  0  0
 11 12  1  0  0  0  0
 12 13  2  0  0  0  0
 12 14  2  0  0  0  0
 14 15  1  0  0  0  0
 15 16  1  0  0  0  0
 12 17  2  0  0  0  0
 17 18  1  0  0  0  0
 18 19  1  0  0  0  0
  1 20  1  0  0  0  0
  1 21  1  0  0  0  0
  1 22  1  0  0  0  0
  2 23  1  0  0  0  0
  2 24  1  0  0  0  0
  7 25  1  0  0  0  0
  7 26  1  0  0  0  0
  8 27  1  0  0  0  0
  8 28  1  0  0  0  0
  8 29  1  0  0  0  0
 10 30  1  0  0  0  0
 10 31  1  0  0  0  0
 15 32  1  0  0  0  0
 15 33  1  0  0  0  0
 16 34  1  0  0  0  0
 16 35  1  0  0  0  0
 16 36  1  0  0  0  0
 18 37  1  0  0  0  0
 18 38  1  0  0  0  0
 19 39  1  0  0  0  0
 19 40  1  0  0  0  0
 19 41  1  0  0  0  0
M  END
