 xtb: 6.7.1 (edcfbbe)
          04092505203D

 41 40  0     0  0            999 V2000
    3.9528   -1.1824   -2.7096 C   0  0  0  0  0  0  0  0  0  0  0  0
    4.2588   -1.5629   -1.2754 C   0  0  0  0  0  0  0  0  0  0  0  0
    3.0638   -1.7015   -0.4873 O   0  0  0  0  0  0  0  0  0  0  0  0
    2.1524   -0.4576   -0.0892 P   0  0  0  0  0  0  0  0  0  0  0  0
    3.1711    1.1575    0.3709 S   0  0  0  0  0  0  0  0  0  0  0  0
    1.2641   -1.1052    1.0519 O   0  0  0  0  0  0  0  0  0  0  0  0
    1.6825   -1.1419    2.4343 C   0  0  0  0  0  0  0  0  0  0  0  0
    0.9393   -0.0906    3.2349 C   0  0  0  0  0  0  0  0  0  0  0  0
    0.7212   -0.3317   -1.6276 S   0  0  0  0  0  0  0  0  0  0  0  0
    0.1786    1.3695   -1.3006 C   0  0  0  0  0  0  0  0  0  0  0  0
   -0.4744    1.6049    0.3703 S   0  0  0  0  0  0  0  0  0  0  0  0
   -2.1916    0.3913    0.1832 P   0  0  0  0  0  0  0  0  0  0  0  0
   -3.0502    0.2975   -1.5811 S   0  0  0  0  0  0  0  0  0  0  0  0
   -3.0973    0.8733    1.4001 O   0  0  0  0  0  0  0  0  0  0  0  0
   -3.4845    2.2310    1.6828 C   0  0  0  0  0  0  0  0  0  0  0  0
   -4.0759    2.9431    0.4840 C   0  0  0  0  0  0  0  0  0  0  0  0
   -1.7174   -1.0059    0.7606 O   0  0  0  0  0  0  0  0  0  0  0  0
   -2.2835   -2.2736    0.3649 C   0  0  0  0  0  0  0  0  0  0  0  0
   -1.3663   -2.9993   -0.5997 C   0  0  0  0  0  0  0  0  0  0  0  0
    4.8683   -1.2091   -3.2917 H   0  0  0  0  0  0  0  0  0  0  0  0
    3.2307   -1.8729   -3.1381 H   0  0  0  0  0  0  0  0  0  0  0  0
    3.5395   -0.1753   -2.7477 H   0  0  0  0  0  0  0  0  0  0  0  0
    4.8969   -0.8081   -0.8045 H   0  0  0  0  0  0  0  0  0  0  0  0
    4.7315   -2.5437   -1.2096 H   0  0  0  0  0  0  0  0  0  0  0  0
    1.4402   -2.1496    2.7759 H   0  0  0  0  0  0  0  0  0  0  0  0
    2.7637   -0.9850    2.4897 H   0  0  0  0  0  0  0  0  0  0  0  0
    1.2252    0.9059    2.9041 H   0  0  0  0  0  0  0  0  0  0  0  0
   -0.1328   -0.2095    3.0954 H   0  0  0  0  0  0  0  0  0  0  0  0
    1.1822   -0.2012    4.2868 H   0  0  0  0  0  0  0  0  0  0  0  0
   -0.5970    1.5854   -2.0351 H   0  0  0  0  0  0  0  0  0  0  0  0
    1.0223    2.0516   -1.3950 H   0  0  0  0  0  0  0  0  0  0  0  0
   -4.2172    2.1256    2.4850 H   0  0  0  0  0  0  0  0  0  0  0  0
   -2.6040    2.7635    2.0532 H   0  0  0  0  0  0  0  0  0  0  0  0
   -4.9029    2.3702    0.0710 H   0  0  0  0  0  0  0  0  0  0  0  0
   -4.4332    3.9216    0.7883 H   0  0  0  0  0  0  0  0  0  0  0  0
   -3.3209    3.0669   -0.2912 H   0  0  0  0  0  0  0  0  0  0  0  0
   -2.3997   -2.8273    1.2981 H   0  0  0  0  0  0  0  0  0  0  0  0
   -3.2647   -2.1044   -0.0878 H   0  0  0  0  0  0  0  0  0  0  0  0
   -0.3593   -3.0488   -0.1924 H   0  0  0  0  0  0  0  0  0  0  0  0
   -1.7414   -4.0050   -0.7596 H   0  0  0  0  0  0  0  0  0  0  0  0
   -1.3311   -2.4760   -1.5530 H   0  0  0  0  0  0  0  0  0  0  0  0
  1  2  1  0  0  0  0
  2  3  1  0  0  0  0
  3  4  2  0  0  0  0
  4  5  2  0  0  0  0
  4  6  2  0  0  0  0
  6  7  1  0  0  0  0
  7  8  1  0  0  0  0
  4  9  1  0  0  0  0
  9 10  1  0  0  0  0
 10 11  1  0  0  0  0
 11 12  1  0  0  0  0
 12 13  2  0  0  0  0
 12 14  2  0  0  0  0
 14 15  1  0  0  0  0
 15 16  1  0  0  0  0
 12 17  2  0  0  0  0
 17 18  1  0  0  0  0
 18 19  1  0  0  0  0
  1 20  1  0  0  0  0
  1 21  1  0  0  0  0
  1 22  1  0  0  0  0
  2 23  1  0  0  0  0
  2 24  1  0  0  0  0
  7 25  1  0  0  0  0
  7 26  1  0  0  0  0
  8 27  1  0  0  0  0
  8 28  1  0  0  0  0
  8 29  1  0  0  0  0
 10 30  1  0  0  0  0
 10 31  1  0  0  0  0
 15 32  1  0  0  0  0
 15 33  1  0  0  0  0
 16 34  1  0  0  0  0
 16 35  1  0  0  0  0
 16 36  1  0  0  0  0
 18 37  1  0  0  0  0
 18 38  1  0  0  0  0
 19 39  1  0  0  0  0
 19 40  1  0  0  0  0
 19 41  1  0  0  0  0
M  END
