 xtb: 6.7.1 (edcfbbe)
          04092513573D

 41 40  0     0  0            999 V2000
    2.7023   -1.6423    2.9125 C   0  0  0  0  0  0  0  0  0  0  0  0
    1.4561   -1.6286    2.0527 C   0  0  0  0  0  0  0  0  0  0  0  0
    1.3608   -0.4099    1.2878 O   0  0  0  0  0  0  0  0  0  0  0  0
    2.2310   -0.1442   -0.0037 P   0  0  0  0  0  0  0  0  0  0  0  0
    2.9205   -1.7173   -0.9536 S   0  0  0  0  0  0  0  0  0  0  0  0
    3.3362    0.8435    0.5643 O   0  0  0  0  0  0  0  0  0  0  0  0
    4.4257    1.3201   -0.2539 C   0  0  0  0  0  0  0  0  0  0  0  0
    5.4695    1.9235    0.6647 C   0  0  0  0  0  0  0  0  0  0  0  0
    0.9652    1.1411   -1.1100 S   0  0  0  0  0  0  0  0  0  0  0  0
    0.1135   -0.1455   -2.0642 C   0  0  0  0  0  0  0  0  0  0  0  0
   -0.8464   -1.2918   -1.0365 S   0  0  0  0  0  0  0  0  0  0  0  0
   -2.2107    0.1260   -0.2578 P   0  0  0  0  0  0  0  0  0  0  0  0
   -2.7683    1.5607   -1.4758 S   0  0  0  0  0  0  0  0  0  0  0  0
   -1.4874    0.5588    1.0783 O   0  0  0  0  0  0  0  0  0  0  0  0
   -1.6646    1.8612    1.6717 C   0  0  0  0  0  0  0  0  0  0  0  0
   -3.0032    1.9711    2.3708 C   0  0  0  0  0  0  0  0  0  0  0  0
   -3.3868   -0.7804    0.3038 O   0  0  0  0  0  0  0  0  0  0  0  0
   -4.3847   -1.3575   -0.5649 C   0  0  0  0  0  0  0  0  0  0  0  0
   -5.5433   -1.8193    0.2963 C   0  0  0  0  0  0  0  0  0  0  0  0
    2.7017   -2.5337    3.5321 H   0  0  0  0  0  0  0  0  0  0  0  0
    3.5871   -1.6518    2.2772 H   0  0  0  0  0  0  0  0  0  0  0  0
    2.7329   -0.7596    3.5454 H   0  0  0  0  0  0  0  0  0  0  0  0
    0.5437   -1.6357    2.6507 H   0  0  0  0  0  0  0  0  0  0  0  0
    1.4501   -2.4774    1.3606 H   0  0  0  0  0  0  0  0  0  0  0  0
    4.8294    0.4756   -0.8223 H   0  0  0  0  0  0  0  0  0  0  0  0
    4.0313    2.0639   -0.9517 H   0  0  0  0  0  0  0  0  0  0  0  0
    6.2863    2.3138    0.0662 H   0  0  0  0  0  0  0  0  0  0  0  0
    5.0307    2.7304    1.2443 H   0  0  0  0  0  0  0  0  0  0  0  0
    5.8533    1.1689    1.3453 H   0  0  0  0  0  0  0  0  0  0  0  0
    0.8450   -0.7528   -2.5965 H   0  0  0  0  0  0  0  0  0  0  0  0
   -0.5514    0.3752   -2.7525 H   0  0  0  0  0  0  0  0  0  0  0  0
   -0.8291    1.9485    2.3678 H   0  0  0  0  0  0  0  0  0  0  0  0
   -1.5712    2.6189    0.8864 H   0  0  0  0  0  0  0  0  0  0  0  0
   -3.1148    1.1723    3.0989 H   0  0  0  0  0  0  0  0  0  0  0  0
   -3.0688    2.9316    2.8725 H   0  0  0  0  0  0  0  0  0  0  0  0
   -3.8071    1.8968    1.6395 H   0  0  0  0  0  0  0  0  0  0  0  0
   -4.6988   -0.5971   -1.2878 H   0  0  0  0  0  0  0  0  0  0  0  0
   -3.9292   -2.1941   -1.1019 H   0  0  0  0  0  0  0  0  0  0  0  0
   -5.1952   -2.5404    1.0300 H   0  0  0  0  0  0  0  0  0  0  0  0
   -5.9868   -0.9744    0.8153 H   0  0  0  0  0  0  0  0  0  0  0  0
   -6.2929   -2.2836   -0.3363 H   0  0  0  0  0  0  0  0  0  0  0  0
  1  2  1  0  0  0  0
  2  3  1  0  0  0  0
  3  4  2  0  0  0  0
  4  5  2  0  0  0  0
  4  6  2  0  0  0  0
  6  7  1  0  0  0  0
  7  8  1  0  0  0  0
  4  9  1  0  0  0  0
  9 10  1  0  0  0  0
 10 11  1  0  0  0  0
 11 12  1  0  0  0  0
 12 13  2  0  0  0  0
 12 14  2  0  0  0  0
 14 15  1  0  0  0  0
 15 16  1  0  0  0  0
 12 17  2  0  0  0  0
 17 18  1  0  0  0  0
 18 19  1  0  0  0  0
  1 20  1  0  0  0  0
  1 21  1  0  0  0  0
  1 22  1  0  0  0  0
  2 23  1  0  0  0  0
  2 24  1  0  0  0  0
  7 25  1  0  0  0  0
  7 26  1  0  0  0  0
  8 27  1  0  0  0  0
  8 28  1  0  0  0  0
  8 29  1  0  0  0  0
 10 30  1  0  0  0  0
 10 31  1  0  0  0  0
 15 32  1  0  0  0  0
 15 33  1  0  0  0  0
 16 34  1  0  0  0  0
 16 35  1  0  0  0  0
 16 36  1  0  0  0  0
 18 37  1  0  0  0  0
 18 38  1  0  0  0  0
 19 39  1  0  0  0  0
 19 40  1  0  0  0  0
 19 41  1  0  0  0  0
M  END
