 xtb: 6.7.1 (edcfbbe)
          04092505213D

 41 40  0     0  0            999 V2000
    3.9109   -0.9072   -2.9094 C   0  0  0  0  0  0  0  0  0  0  0  0
    4.4281   -0.6978   -1.5019 C   0  0  0  0  0  0  0  0  0  0  0  0
    3.6076    0.1996   -0.7286 O   0  0  0  0  0  0  0  0  0  0  0  0
    2.0520    0.0341   -0.4773 P   0  0  0  0  0  0  0  0  0  0  0  0
    0.8667    0.5959   -1.9324 S   0  0  0  0  0  0  0  0  0  0  0  0
    1.8030    0.9455    0.7817 O   0  0  0  0  0  0  0  0  0  0  0  0
    2.2056    0.6980    2.1515 C   0  0  0  0  0  0  0  0  0  0  0  0
    3.6762    0.3765    2.3024 C   0  0  0  0  0  0  0  0  0  0  0  0
    1.8250   -1.9912    0.1174 S   0  0  0  0  0  0  0  0  0  0  0  0
    0.0295   -2.0483   -0.0475 C   0  0  0  0  0  0  0  0  0  0  0  0
   -0.8381   -1.2273    1.3389 S   0  0  0  0  0  0  0  0  0  0  0  0
   -1.8620    0.4278    0.5031 P   0  0  0  0  0  0  0  0  0  0  0  0
   -1.1449    2.2444    0.5493 S   0  0  0  0  0  0  0  0  0  0  0  0
   -3.1814    0.4188    1.3879 O   0  0  0  0  0  0  0  0  0  0  0  0
   -4.0604   -0.7289    1.4896 C   0  0  0  0  0  0  0  0  0  0  0  0
   -5.4713   -0.2211    1.7078 C   0  0  0  0  0  0  0  0  0  0  0  0
   -2.2396   -0.1960   -0.9188 O   0  0  0  0  0  0  0  0  0  0  0  0
   -2.6008    0.6398   -2.0337 C   0  0  0  0  0  0  0  0  0  0  0  0
   -3.9732    1.2499   -1.8439 C   0  0  0  0  0  0  0  0  0  0  0  0
    3.7866    0.0481   -3.4142 H   0  0  0  0  0  0  0  0  0  0  0  0
    4.6156   -1.5184   -3.4639 H   0  0  0  0  0  0  0  0  0  0  0  0
    2.9451   -1.4095   -2.8859 H   0  0  0  0  0  0  0  0  0  0  0  0
    5.4047   -0.2107   -1.5044 H   0  0  0  0  0  0  0  0  0  0  0  0
    4.4873   -1.6497   -0.9671 H   0  0  0  0  0  0  0  0  0  0  0  0
    1.9393    1.6304    2.6529 H   0  0  0  0  0  0  0  0  0  0  0  0
    1.5841   -0.1137    2.5428 H   0  0  0  0  0  0  0  0  0  0  0  0
    3.9039   -0.5901    1.8578 H   0  0  0  0  0  0  0  0  0  0  0  0
    4.2797    1.1421    1.8219 H   0  0  0  0  0  0  0  0  0  0  0  0
    3.9159    0.3421    3.3609 H   0  0  0  0  0  0  0  0  0  0  0  0
   -0.2533   -3.0968   -0.0195 H   0  0  0  0  0  0  0  0  0  0  0  0
   -0.2627   -1.5705   -0.9835 H   0  0  0  0  0  0  0  0  0  0  0  0
   -3.9833   -1.3185    0.5722 H   0  0  0  0  0  0  0  0  0  0  0  0
   -3.7183   -1.3286    2.3361 H   0  0  0  0  0  0  0  0  0  0  0  0
   -6.1391   -1.0679    1.8293 H   0  0  0  0  0  0  0  0  0  0  0  0
   -5.5064    0.3973    2.5999 H   0  0  0  0  0  0  0  0  0  0  0  0
   -5.7955    0.3754    0.8594 H   0  0  0  0  0  0  0  0  0  0  0  0
   -1.8379    1.4161   -2.1493 H   0  0  0  0  0  0  0  0  0  0  0  0
   -2.5618   -0.0328   -2.8918 H   0  0  0  0  0  0  0  0  0  0  0  0
   -4.2214    1.8484   -2.7147 H   0  0  0  0  0  0  0  0  0  0  0  0
   -4.7205    0.4706   -1.7168 H   0  0  0  0  0  0  0  0  0  0  0  0
   -3.9682    1.8925   -0.9633 H   0  0  0  0  0  0  0  0  0  0  0  0
  1  2  1  0  0  0  0
  2  3  1  0  0  0  0
  3  4  2  0  0  0  0
  4  5  2  0  0  0  0
  4  6  2  0  0  0  0
  6  7  1  0  0  0  0
  7  8  1  0  0  0  0
  4  9  1  0  0  0  0
  9 10  1  0  0  0  0
 10 11  1  0  0  0  0
 11 12  1  0  0  0  0
 12 13  2  0  0  0  0
 12 14  2  0  0  0  0
 14 15  1  0  0  0  0
 15 16  1  0  0  0  0
 12 17  1  0  0  0  0
 17 18  1  0  0  0  0
 18 19  1  0  0  0  0
  1 20  1  0  0  0  0
  1 21  1  0  0  0  0
  1 22  1  0  0  0  0
  2 23  1  0  0  0  0
  2 24  1  0  0  0  0
  7 25  1  0  0  0  0
  7 26  1  0  0  0  0
  8 27  1  0  0  0  0
  8 28  1  0  0  0  0
  8 29  1  0  0  0  0
 10 30  1  0  0  0  0
 10 31  1  0  0  0  0
 15 32  1  0  0  0  0
 15 33  1  0  0  0  0
 16 34  1  0  0  0  0
 16 35  1  0  0  0  0
 16 36  1  0  0  0  0
 18 37  1  0  0  0  0
 18 38  1  0  0  0  0
 19 39  1  0  0  0  0
 19 40  1  0  0  0  0
 19 41  1  0  0  0  0
M  END
