 xtb: 6.7.1 (edcfbbe)
          04032519423D

 20 20  0     0  0            999 V2000
    0.6450    1.6941   -0.0963 C   0  0  0  0  0  0  0  0  0  0  0  0
    1.4322    0.3820   -0.2723 C   0  0  0  0  0  0  0  0  0  0  0  0
    1.6758    0.2224   -1.3298 H   0  0  0  0  0  0  0  0  0  0  0  0
    0.5773   -0.8087    0.1811 C   0  0  0  0  0  0  0  0  0  0  0  0
    0.4788   -0.7698    1.2778 H   0  0  0  0  0  0  0  0  0  0  0  0
   -0.8116   -0.7501   -0.4831 C   0  0  0  0  0  0  0  0  0  0  0  0
   -0.6809   -0.9202   -1.5575 H   0  0  0  0  0  0  0  0  0  0  0  0
   -1.4733    0.6265   -0.2702 C   0  0  0  0  0  0  0  0  0  0  0  0
   -2.3718    0.7039   -0.8929 H   0  0  0  0  0  0  0  0  0  0  0  0
   -0.6409    1.6658   -0.6976 O   0  0  0  0  0  0  0  0  0  0  0  0
   -1.9261    0.7605    1.0447 O   0  0  0  0  0  0  0  0  0  0  0  0
   -1.6374   -1.7805   -0.0020 O   0  0  0  0  0  0  0  0  0  0  0  0
    1.2408   -1.9947   -0.1847 O   0  0  0  0  0  0  0  0  0  0  0  0
    2.5929    0.4115    0.5240 O   0  0  0  0  0  0  0  0  0  0  0  0
    1.1583    2.5198   -0.5896 H   0  0  0  0  0  0  0  0  0  0  0  0
    0.5787    1.9160    0.9771 H   0  0  0  0  0  0  0  0  0  0  0  0
   -1.1821    0.8863    1.6529 H   0  0  0  0  0  0  0  0  0  0  0  0
   -2.1105   -1.4584    0.7835 H   0  0  0  0  0  0  0  0  0  0  0  0
    0.6351   -2.7384   -0.0414 H   0  0  0  0  0  0  0  0  0  0  0  0
    3.2996    0.8880    0.0681 H   0  0  0  0  0  0  0  0  0  0  0  0
  1  2  1  0  0  0  0
  2  3  1  0  0  0  0
  2  4  1  0  0  0  0
  4  5  1  0  0  0  0
  4  6  1  0  0  0  0
  6  7  1  0  0  0  0
  6  8  1  0  0  0  0
  8  9  1  0  0  0  0
  1 10  1  0  0  0  0
  8 10  1  0  0  0  0
  8 11  1  0  0  0  0
  6 12  1  0  0  0  0
  4 13  1  0  0  0  0
  2 14  1  0  0  0  0
  1 15  1  0  0  0  0
  1 16  1  0  0  0  0
 11 17  1  0  0  0  0
 12 18  1  0  0  0  0
 13 19  1  0  0  0  0
 14 20  1  0  0  0  0
M  END
