 xtb: 6.7.1 (edcfbbe)
          04092505203D

 41 40  0     0  0            999 V2000
    4.8725    0.3561   -1.3936 C   0  0  0  0  0  0  0  0  0  0  0  0
    4.4978    1.1722   -0.1739 C   0  0  0  0  0  0  0  0  0  0  0  0
    3.4830    0.5347    0.6227 O   0  0  0  0  0  0  0  0  0  0  0  0
    1.9946    0.3228    0.1135 P   0  0  0  0  0  0  0  0  0  0  0  0
    1.2262    1.8047   -0.9148 S   0  0  0  0  0  0  0  0  0  0  0  0
    1.2109    0.0774    1.4593 O   0  0  0  0  0  0  0  0  0  0  0  0
    1.7270   -0.5805    2.6446 C   0  0  0  0  0  0  0  0  0  0  0  0
    2.0439   -2.0431    2.4140 C   0  0  0  0  0  0  0  0  0  0  0  0
    2.0576   -1.5251   -0.9441 S   0  0  0  0  0  0  0  0  0  0  0  0
    0.3585   -1.5164   -1.5413 C   0  0  0  0  0  0  0  0  0  0  0  0
   -0.8635   -1.7795   -0.2102 S   0  0  0  0  0  0  0  0  0  0  0  0
   -2.0349   -0.0448   -0.4237 P   0  0  0  0  0  0  0  0  0  0  0  0
   -2.1153    0.8029   -2.1800 S   0  0  0  0  0  0  0  0  0  0  0  0
   -1.4841    0.8459    0.7875 O   0  0  0  0  0  0  0  0  0  0  0  0
   -1.7125    2.2647    0.8400 C   0  0  0  0  0  0  0  0  0  0  0  0
   -3.1613    2.5888    1.1391 C   0  0  0  0  0  0  0  0  0  0  0  0
   -3.4744   -0.5487    0.0187 O   0  0  0  0  0  0  0  0  0  0  0  0
   -3.6965   -1.2204    1.2843 C   0  0  0  0  0  0  0  0  0  0  0  0
   -5.1722   -1.1182    1.6100 C   0  0  0  0  0  0  0  0  0  0  0  0
    4.0444    0.3384   -2.1002 H   0  0  0  0  0  0  0  0  0  0  0  0
    5.7335    0.8087   -1.8748 H   0  0  0  0  0  0  0  0  0  0  0  0
    5.1120   -0.6652   -1.1090 H   0  0  0  0  0  0  0  0  0  0  0  0
    4.1334    2.1607   -0.4697 H   0  0  0  0  0  0  0  0  0  0  0  0
    5.3375    1.2757    0.5149 H   0  0  0  0  0  0  0  0  0  0  0  0
    2.6108   -0.0340    2.9782 H   0  0  0  0  0  0  0  0  0  0  0  0
    0.9161   -0.4561    3.3641 H   0  0  0  0  0  0  0  0  0  0  0  0
    2.8926   -2.1483    1.7419 H   0  0  0  0  0  0  0  0  0  0  0  0
    2.2889   -2.5019    3.3669 H   0  0  0  0  0  0  0  0  0  0  0  0
    1.1859   -2.5535    1.9817 H   0  0  0  0  0  0  0  0  0  0  0  0
    0.2764   -2.3465   -2.2382 H   0  0  0  0  0  0  0  0  0  0  0  0
    0.1354   -0.5660   -2.0348 H   0  0  0  0  0  0  0  0  0  0  0  0
   -1.0401    2.6111    1.6268 H   0  0  0  0  0  0  0  0  0  0  0  0
   -1.4031    2.7028   -0.1150 H   0  0  0  0  0  0  0  0  0  0  0  0
   -3.7940    2.2153    0.3339 H   0  0  0  0  0  0  0  0  0  0  0  0
   -3.4669    2.1313    2.0769 H   0  0  0  0  0  0  0  0  0  0  0  0
   -3.2789    3.6657    1.2085 H   0  0  0  0  0  0  0  0  0  0  0  0
   -3.3829   -2.2608    1.1669 H   0  0  0  0  0  0  0  0  0  0  0  0
   -3.0788   -0.7432    2.0498 H   0  0  0  0  0  0  0  0  0  0  0  0
   -5.7576   -1.5617    0.8099 H   0  0  0  0  0  0  0  0  0  0  0  0
   -5.3692   -1.6471    2.5369 H   0  0  0  0  0  0  0  0  0  0  0  0
   -5.4646   -0.0774    1.7190 H   0  0  0  0  0  0  0  0  0  0  0  0
  1  2  1  0  0  0  0
  2  3  1  0  0  0  0
  3  4  2  0  0  0  0
  4  5  2  0  0  0  0
  4  6  2  0  0  0  0
  6  7  1  0  0  0  0
  7  8  1  0  0  0  0
  4  9  1  0  0  0  0
  9 10  1  0  0  0  0
 10 11  1  0  0  0  0
 11 12  1  0  0  0  0
 12 13  2  0  0  0  0
 12 14  1  0  0  0  0
 14 15  1  0  0  0  0
 15 16  1  0  0  0  0
 12 17  2  0  0  0  0
 17 18  1  0  0  0  0
 18 19  1  0  0  0  0
  1 20  1  0  0  0  0
  1 21  1  0  0  0  0
  1 22  1  0  0  0  0
  2 23  1  0  0  0  0
  2 24  1  0  0  0  0
  7 25  1  0  0  0  0
  7 26  1  0  0  0  0
  8 27  1  0  0  0  0
  8 28  1  0  0  0  0
  8 29  1  0  0  0  0
 10 30  1  0  0  0  0
 10 31  1  0  0  0  0
 15 32  1  0  0  0  0
 15 33  1  0  0  0  0
 16 34  1  0  0  0  0
 16 35  1  0  0  0  0
 16 36  1  0  0  0  0
 18 37  1  0  0  0  0
 18 38  1  0  0  0  0
 19 39  1  0  0  0  0
 19 40  1  0  0  0  0
 19 41  1  0  0  0  0
M  END
