 xtb: 6.7.1 (edcfbbe)
          04092505213D

 41 40  0     0  0            999 V2000
    5.4736   -1.1091   -1.2815 C   0  0  0  0  0  0  0  0  0  0  0  0
    4.1781   -0.4665   -1.7327 C   0  0  0  0  0  0  0  0  0  0  0  0
    3.6267    0.3738   -0.6869 O   0  0  0  0  0  0  0  0  0  0  0  0
    2.5525   -0.1086    0.3635 P   0  0  0  0  0  0  0  0  0  0  0  0
    2.2338    1.2580    1.7226 S   0  0  0  0  0  0  0  0  0  0  0  0
    3.1359   -1.4882    0.8944 O   0  0  0  0  0  0  0  0  0  0  0  0
    2.6943   -2.0784    2.1305 C   0  0  0  0  0  0  0  0  0  0  0  0
    1.2263   -2.4497    2.0926 C   0  0  0  0  0  0  0  0  0  0  0  0
    0.9166   -0.7370   -0.8676 S   0  0  0  0  0  0  0  0  0  0  0  0
    0.4335    0.9115   -1.4344 C   0  0  0  0  0  0  0  0  0  0  0  0
   -0.6315    1.7968   -0.2551 S   0  0  0  0  0  0  0  0  0  0  0  0
   -2.2335    0.4239   -0.3196 P   0  0  0  0  0  0  0  0  0  0  0  0
   -2.6040   -0.3922   -2.0669 S   0  0  0  0  0  0  0  0  0  0  0  0
   -3.4382    1.2450    0.3086 O   0  0  0  0  0  0  0  0  0  0  0  0
   -4.1766    2.2140   -0.4626 C   0  0  0  0  0  0  0  0  0  0  0  0
   -5.5072    2.4427    0.2256 C   0  0  0  0  0  0  0  0  0  0  0  0
   -1.8615   -0.5605    0.8594 O   0  0  0  0  0  0  0  0  0  0  0  0
   -2.3947   -1.9025    0.9225 C   0  0  0  0  0  0  0  0  0  0  0  0
   -3.8871   -1.8985    1.1746 C   0  0  0  0  0  0  0  0  0  0  0  0
    5.2896   -1.7934   -0.4581 H   0  0  0  0  0  0  0  0  0  0  0  0
    5.9052   -1.6566   -2.1136 H   0  0  0  0  0  0  0  0  0  0  0  0
    6.1728   -0.3448   -0.9533 H   0  0  0  0  0  0  0  0  0  0  0  0
    3.4364   -1.2202   -2.0104 H   0  0  0  0  0  0  0  0  0  0  0  0
    4.3452    0.2163   -2.5678 H   0  0  0  0  0  0  0  0  0  0  0  0
    3.3303   -2.9575    2.2428 H   0  0  0  0  0  0  0  0  0  0  0  0
    2.8892   -1.3681    2.9396 H   0  0  0  0  0  0  0  0  0  0  0  0
    0.9677   -2.9855    3.0004 H   0  0  0  0  0  0  0  0  0  0  0  0
    0.6204   -1.5453    2.0306 H   0  0  0  0  0  0  0  0  0  0  0  0
    1.0155   -3.0749    1.2278 H   0  0  0  0  0  0  0  0  0  0  0  0
   -0.1115    0.7704   -2.3675 H   0  0  0  0  0  0  0  0  0  0  0  0
    1.3173    1.5303   -1.5776 H   0  0  0  0  0  0  0  0  0  0  0  0
   -3.5871    3.1337   -0.5087 H   0  0  0  0  0  0  0  0  0  0  0  0
   -4.3108    1.8232   -1.4772 H   0  0  0  0  0  0  0  0  0  0  0  0
   -6.0652    3.1959   -0.3209 H   0  0  0  0  0  0  0  0  0  0  0  0
   -6.0802    1.5202    0.2514 H   0  0  0  0  0  0  0  0  0  0  0  0
   -5.3424    2.7838    1.2435 H   0  0  0  0  0  0  0  0  0  0  0  0
   -2.1583   -2.4105   -0.0179 H   0  0  0  0  0  0  0  0  0  0  0  0
   -1.8448   -2.3639    1.7433 H   0  0  0  0  0  0  0  0  0  0  0  0
   -4.4031   -1.4556    0.3234 H   0  0  0  0  0  0  0  0  0  0  0  0
   -4.2333   -2.9188    1.3060 H   0  0  0  0  0  0  0  0  0  0  0  0
   -4.1155   -1.3182    2.0648 H   0  0  0  0  0  0  0  0  0  0  0  0
  1  2  1  0  0  0  0
  2  3  1  0  0  0  0
  3  4  2  0  0  0  0
  4  5  2  0  0  0  0
  4  6  2  0  0  0  0
  6  7  1  0  0  0  0
  7  8  1  0  0  0  0
  4  9  1  0  0  0  0
  9 10  1  0  0  0  0
 10 11  1  0  0  0  0
 11 12  1  0  0  0  0
 12 13  2  0  0  0  0
 12 14  2  0  0  0  0
 14 15  1  0  0  0  0
 15 16  1  0  0  0  0
 12 17  2  0  0  0  0
 17 18  1  0  0  0  0
 18 19  1  0  0  0  0
  1 20  1  0  0  0  0
  1 21  1  0  0  0  0
  1 22  1  0  0  0  0
  2 23  1  0  0  0  0
  2 24  1  0  0  0  0
  7 25  1  0  0  0  0
  7 26  1  0  0  0  0
  8 27  1  0  0  0  0
  8 28  1  0  0  0  0
  8 29  1  0  0  0  0
 10 30  1  0  0  0  0
 10 31  1  0  0  0  0
 15 32  1  0  0  0  0
 15 33  1  0  0  0  0
 16 34  1  0  0  0  0
 16 35  1  0  0  0  0
 16 36  1  0  0  0  0
 18 37  1  0  0  0  0
 18 38  1  0  0  0  0
 19 39  1  0  0  0  0
 19 40  1  0  0  0  0
 19 41  1  0  0  0  0
M  END
