 xtb: 6.7.1 (edcfbbe)
          04092505213D

 41 40  0     0  0            999 V2000
    4.2737    0.0625    1.5698 C   0  0  0  0  0  0  0  0  0  0  0  0
    4.0538    0.3702    0.1020 C   0  0  0  0  0  0  0  0  0  0  0  0
    2.6542    0.4385   -0.2197 O   0  0  0  0  0  0  0  0  0  0  0  0
    1.7815   -0.8679   -0.5048 P   0  0  0  0  0  0  0  0  0  0  0  0
    2.7364   -2.2525   -1.5088 S   0  0  0  0  0  0  0  0  0  0  0  0
    0.5176   -0.2313   -1.2403 O   0  0  0  0  0  0  0  0  0  0  0  0
    0.6290    0.1554   -2.6306 C   0  0  0  0  0  0  0  0  0  0  0  0
   -0.1003   -0.8377   -3.5108 C   0  0  0  0  0  0  0  0  0  0  0  0
    0.9707   -1.5442    1.2993 S   0  0  0  0  0  0  0  0  0  0  0  0
    0.4565   -0.0198    2.1949 C   0  0  0  0  0  0  0  0  0  0  0  0
    0.0656    1.4121    1.1713 S   0  0  0  0  0  0  0  0  0  0  0  0
   -1.7932    0.8473    0.3449 P   0  0  0  0  0  0  0  0  0  0  0  0
   -2.3233    1.6483   -1.3634 S   0  0  0  0  0  0  0  0  0  0  0  0
   -2.8729    1.0986    1.5041 O   0  0  0  0  0  0  0  0  0  0  0  0
   -3.5708    2.3434    1.6442 C   0  0  0  0  0  0  0  0  0  0  0  0
   -2.6485    3.4633    2.0827 C   0  0  0  0  0  0  0  0  0  0  0  0
   -1.6950   -0.7305    0.4173 O   0  0  0  0  0  0  0  0  0  0  0  0
   -2.6836   -1.5708   -0.2147 C   0  0  0  0  0  0  0  0  0  0  0  0
   -2.0510   -2.9227   -0.4731 C   0  0  0  0  0  0  0  0  0  0  0  0
    3.8807   -0.9246    1.8092 H   0  0  0  0  0  0  0  0  0  0  0  0
    5.3384    0.0763    1.7798 H   0  0  0  0  0  0  0  0  0  0  0  0
    3.7785    0.8081    2.1861 H   0  0  0  0  0  0  0  0  0  0  0  0
    4.5195   -0.3926   -0.5316 H   0  0  0  0  0  0  0  0  0  0  0  0
    4.4364    1.3566   -0.1636 H   0  0  0  0  0  0  0  0  0  0  0  0
    0.1752    1.1469   -2.6918 H   0  0  0  0  0  0  0  0  0  0  0  0
    1.6871    0.2185   -2.8993 H   0  0  0  0  0  0  0  0  0  0  0  0
   -0.0272   -0.5152   -4.5444 H   0  0  0  0  0  0  0  0  0  0  0  0
    0.3451   -1.8257   -3.4117 H   0  0  0  0  0  0  0  0  0  0  0  0
   -1.1486   -0.8852   -3.2265 H   0  0  0  0  0  0  0  0  0  0  0  0
    1.2778    0.2946    2.8345 H   0  0  0  0  0  0  0  0  0  0  0  0
   -0.4111   -0.3113    2.7818 H   0  0  0  0  0  0  0  0  0  0  0  0
   -4.0396    2.5860    0.6848 H   0  0  0  0  0  0  0  0  0  0  0  0
   -4.3391    2.1356    2.3902 H   0  0  0  0  0  0  0  0  0  0  0  0
   -2.1342    3.1956    3.0019 H   0  0  0  0  0  0  0  0  0  0  0  0
   -1.9056    3.6548    1.3080 H   0  0  0  0  0  0  0  0  0  0  0  0
   -3.2297    4.3655    2.2436 H   0  0  0  0  0  0  0  0  0  0  0  0
   -3.5379   -1.6506    0.4619 H   0  0  0  0  0  0  0  0  0  0  0  0
   -3.0073   -1.0918   -1.1456 H   0  0  0  0  0  0  0  0  0  0  0  0
   -1.1820   -2.8140   -1.1186 H   0  0  0  0  0  0  0  0  0  0  0  0
   -1.7296   -3.3705    0.4632 H   0  0  0  0  0  0  0  0  0  0  0  0
   -2.7750   -3.5704   -0.9564 H   0  0  0  0  0  0  0  0  0  0  0  0
  1  2  1  0  0  0  0
  2  3  1  0  0  0  0
  3  4  2  0  0  0  0
  4  5  2  0  0  0  0
  4  6  1  0  0  0  0
  6  7  1  0  0  0  0
  7  8  1  0  0  0  0
  4  9  1  0  0  0  0
  9 10  1  0  0  0  0
 10 11  1  0  0  0  0
 11 12  1  0  0  0  0
 12 13  2  0  0  0  0
 12 14  1  0  0  0  0
 14 15  1  0  0  0  0
 15 16  1  0  0  0  0
 12 17  2  0  0  0  0
 17 18  1  0  0  0  0
 18 19  1  0  0  0  0
  1 20  1  0  0  0  0
  1 21  1  0  0  0  0
  1 22  1  0  0  0  0
  2 23  1  0  0  0  0
  2 24  1  0  0  0  0
  7 25  1  0  0  0  0
  7 26  1  0  0  0  0
  8 27  1  0  0  0  0
  8 28  1  0  0  0  0
  8 29  1  0  0  0  0
 10 30  1  0  0  0  0
 10 31  1  0  0  0  0
 15 32  1  0  0  0  0
 15 33  1  0  0  0  0
 16 34  1  0  0  0  0
 16 35  1  0  0  0  0
 16 36  1  0  0  0  0
 18 37  1  0  0  0  0
 18 38  1  0  0  0  0
 19 39  1  0  0  0  0
 19 40  1  0  0  0  0
 19 41  1  0  0  0  0
M  END
