 xtb: 6.7.1 (edcfbbe)
          04092507313D

 38 37  0     0  0            999 V2000
    3.7874   -3.6508   -0.4545 C   0  0  0  0  0  0  0  0  0  0  0  0
    4.3043   -2.3627   -1.0750 C   0  0  0  0  0  0  0  0  0  0  0  0
    3.2664   -1.7054   -1.8301 O   0  0  0  0  0  0  0  0  0  0  0  0
    2.4345   -0.9120   -1.1930 C   0  0  0  0  0  0  0  0  0  0  0  0
    2.4882   -0.6603   -0.0067 O   0  0  0  0  0  0  0  0  0  0  0  0
    1.3986   -0.3156   -2.1230 C   0  0  0  0  0  0  0  0  0  0  0  0
    0.3037    0.3489   -1.3002 C   0  0  0  0  0  0  0  0  0  0  0  0
   -0.3628    0.9368   -1.9402 H   0  0  0  0  0  0  0  0  0  0  0  0
    0.9258    1.3017   -0.2917 C   0  0  0  0  0  0  0  0  0  0  0  0
    1.7884    2.0908   -0.6053 O   0  0  0  0  0  0  0  0  0  0  0  0
    0.3612    1.2223    0.8950 O   0  0  0  0  0  0  0  0  0  0  0  0
    0.8630    2.0511    1.9614 C   0  0  0  0  0  0  0  0  0  0  0  0
    1.7747    1.2361    2.8627 C   0  0  0  0  0  0  0  0  0  0  0  0
   -0.7122   -0.9223   -0.4762 S   0  0  0  0  0  0  0  0  0  0  0  0
   -2.1968    0.3494    0.3562 P   0  0  0  0  0  0  0  0  0  0  0  0
   -2.4272    2.1034   -0.4842 S   0  0  0  0  0  0  0  0  0  0  0  0
   -3.4977   -0.5846    0.2714 O   0  0  0  0  0  0  0  0  0  0  0  0
   -4.0995   -0.9064   -0.9872 C   0  0  0  0  0  0  0  0  0  0  0  0
   -2.0269    0.4224    1.9246 O   0  0  0  0  0  0  0  0  0  0  0  0
   -1.8591   -0.7588    2.7327 C   0  0  0  0  0  0  0  0  0  0  0  0
    2.9988   -3.4300    0.2613 H   0  0  0  0  0  0  0  0  0  0  0  0
    3.3915   -4.3047   -1.2264 H   0  0  0  0  0  0  0  0  0  0  0  0
    4.6006   -4.1528    0.0591 H   0  0  0  0  0  0  0  0  0  0  0  0
    5.0888   -2.5577   -1.8061 H   0  0  0  0  0  0  0  0  0  0  0  0
    4.6638   -1.6755   -0.3039 H   0  0  0  0  0  0  0  0  0  0  0  0
    0.9956   -1.0910   -2.7732 H   0  0  0  0  0  0  0  0  0  0  0  0
    1.8967    0.4386   -2.7365 H   0  0  0  0  0  0  0  0  0  0  0  0
    1.3948    2.8945    1.5123 H   0  0  0  0  0  0  0  0  0  0  0  0
   -0.0260    2.4027    2.4887 H   0  0  0  0  0  0  0  0  0  0  0  0
    2.5810    0.8063    2.2721 H   0  0  0  0  0  0  0  0  0  0  0  0
    2.1922    1.8815    3.6281 H   0  0  0  0  0  0  0  0  0  0  0  0
    1.2190    0.4297    3.3323 H   0  0  0  0  0  0  0  0  0  0  0  0
   -3.4621   -1.6000   -1.5352 H   0  0  0  0  0  0  0  0  0  0  0  0
   -4.2534    0.0020   -1.5718 H   0  0  0  0  0  0  0  0  0  0  0  0
   -5.0532   -1.3685   -0.7457 H   0  0  0  0  0  0  0  0  0  0  0  0
   -0.9580   -1.2906    2.4266 H   0  0  0  0  0  0  0  0  0  0  0  0
   -2.7279   -1.4064    2.6320 H   0  0  0  0  0  0  0  0  0  0  0  0
   -1.7652   -0.3942    3.7523 H   0  0  0  0  0  0  0  0  0  0  0  0
  1  2  1  0  0  0  0
  2  3  1  0  0  0  0
  3  4  4  0  0  0  0
  4  5  2  0  0  0  0
  4  6  1  0  0  0  0
  6  7  1  0  0  0  0
  7  8  1  0  0  0  0
  7  9  1  0  0  0  0
  9 10  2  0  0  0  0
  9 11  1  0  0  0  0
 11 12  1  0  0  0  0
 12 13  1  0  0  0  0
  7 14  1  0  0  0  0
 14 15  1  0  0  0  0
 15 16  2  0  0  0  0
 15 17  1  0  0  0  0
 17 18  1  0  0  0  0
 15 19  2  0  0  0  0
 19 20  1  0  0  0  0
  1 21  1  0  0  0  0
  1 22  1  0  0  0  0
  1 23  1  0  0  0  0
  2 24  1  0  0  0  0
  2 25  1  0  0  0  0
  6 26  1  0  0  0  0
  6 27  1  0  0  0  0
 12 28  1  0  0  0  0
 12 29  1  0  0  0  0
 13 30  1  0  0  0  0
 13 31  1  0  0  0  0
 13 32  1  0  0  0  0
 18 33  1  0  0  0  0
 18 34  1  0  0  0  0
 18 35  1  0  0  0  0
 20 36  1  0  0  0  0
 20 37  1  0  0  0  0
 20 38  1  0  0  0  0
M  END
