41
 xtb: 6.7.1 (edcfbbe)
C            5.41931326198614        0.78454000917153        0.05656497860742
C            4.23442158334554        1.18071012656760       -0.78836544432251
O            3.26415205505863        0.07939868769263       -0.91163068594950
P            2.30993237032932       -0.34377525895205        0.30882497827815
S            1.75621131935731        1.06810520215463        1.52871084973949
O            3.11499847950573       -1.57081241173814        0.98037988723646
C            2.94367012068242       -1.96171317473431        2.38526303490485
C            1.66583290808627       -2.73645464631060        2.59384792553886
S            0.81534808651782       -1.42666008543222       -0.74001125995643
C            0.37586412395744       -0.29106865815761       -2.12054468272880
S           -0.44319372742667        1.29884397944675       -1.73692789748908
P           -2.30127138718516        0.62429645102011       -0.94811039835293
S           -3.04525934634159       -0.97846244420034       -1.76866995008506
O           -3.05625995871682        2.02532385995183       -1.15558311822101
C           -4.52438746180106        2.13717052446622       -1.11244185657510
C           -5.06310223671245        2.05624655772829        0.29433686930756
O           -2.16229747720732        0.58281248709097        0.65482576888710
C           -1.96124364916674       -0.63913526573539        1.44170725214913
C           -3.08895993785537       -0.76475180899303        2.43447666342155
H            6.15531030765596        1.59482694958877        0.02842642011759
H            5.13340960804269        0.62157037294151        1.10026573049350
H            5.89020994847128       -0.12333158555076       -0.33117820325458
H            4.52156350821071        1.38162261821896       -1.82220189354880
H            3.71220877774176        2.05332095282872       -0.38474148798306
H            3.82418916084629       -2.57417700654383        2.58971077299973
H            2.98363573634946       -1.05991667126024        3.00310237841818
H            0.78407393033609       -2.11230487712495        2.41325306773097
H            1.62518580537505       -3.61228310919350        1.93957957466417
H            1.62741583543828       -3.08027163607413        3.63267912420462
H           -0.27794167761966       -0.88789109825785       -2.76365247874193
H            1.27853614421685       -0.02457324630037       -2.67608134499571
H           -4.71379834903618        3.11460903974703       -1.55978499435656
H           -4.94431200044943        1.36157318581639       -1.76038679153856
H           -6.13521345427705        2.27706837423222        0.26479052101366
H           -4.93225830946949        1.05910165782410        0.72299745901619
H           -4.57788680485395        2.79135074251248        0.94286476904397
H           -1.91968661781115       -1.49995745609006        0.76984567055455
H           -0.99025509085575       -0.52005052084828        1.93004351381542
H           -4.04409899842878       -0.92049236301103        1.92454547172381
H           -2.89599454637570       -1.62826152652335        3.07951526083804
H           -3.16106012885357        0.12648636696028        3.06471067628167
