 xtb: 6.7.1 (edcfbbe)
          04092505213D

 41 40  0     0  0            999 V2000
    2.4149   -2.0940   -1.9992 C   0  0  0  0  0  0  0  0  0  0  0  0
    2.4625   -0.5931   -2.1995 C   0  0  0  0  0  0  0  0  0  0  0  0
    1.7176    0.1285   -1.1880 O   0  0  0  0  0  0  0  0  0  0  0  0
    2.0581    0.2620    0.3426 P   0  0  0  0  0  0  0  0  0  0  0  0
    1.0618    1.7703    1.1073 S   0  0  0  0  0  0  0  0  0  0  0  0
    3.6418    0.3368    0.3217 O   0  0  0  0  0  0  0  0  0  0  0  0
    4.4973    0.0800    1.4534 C   0  0  0  0  0  0  0  0  0  0  0  0
    4.1857    0.9691    2.6381 C   0  0  0  0  0  0  0  0  0  0  0  0
    1.6431   -1.5770    1.3174 S   0  0  0  0  0  0  0  0  0  0  0  0
   -0.1376   -1.3224    1.4544 C   0  0  0  0  0  0  0  0  0  0  0  0
   -1.0170   -1.5454   -0.1295 S   0  0  0  0  0  0  0  0  0  0  0  0
   -1.8435    0.3895   -0.5370 P   0  0  0  0  0  0  0  0  0  0  0  0
   -0.9578    1.4761   -1.9093 S   0  0  0  0  0  0  0  0  0  0  0  0
   -2.0653    1.1062    0.8469 O   0  0  0  0  0  0  0  0  0  0  0  0
   -3.2670    1.0122    1.6590 C   0  0  0  0  0  0  0  0  0  0  0  0
   -3.4077   -0.3327    2.3401 C   0  0  0  0  0  0  0  0  0  0  0  0
   -3.3266   -0.0061   -0.9595 O   0  0  0  0  0  0  0  0  0  0  0  0
   -3.5999   -0.5784   -2.2520 C   0  0  0  0  0  0  0  0  0  0  0  0
   -5.0874   -0.4548   -2.5125 C   0  0  0  0  0  0  0  0  0  0  0  0
    2.8585   -2.5745   -2.8656 H   0  0  0  0  0  0  0  0  0  0  0  0
    2.9716   -2.3829   -1.1104 H   0  0  0  0  0  0  0  0  0  0  0  0
    1.3848   -2.4292   -1.8960 H   0  0  0  0  0  0  0  0  0  0  0  0
    1.9622   -0.2937   -3.1227 H   0  0  0  0  0  0  0  0  0  0  0  0
    3.4889   -0.2222   -2.1949 H   0  0  0  0  0  0  0  0  0  0  0  0
    4.3956   -0.9744    1.7241 H   0  0  0  0  0  0  0  0  0  0  0  0
    5.4986    0.2700    1.0629 H   0  0  0  0  0  0  0  0  0  0  0  0
    4.2274    2.0165    2.3483 H   0  0  0  0  0  0  0  0  0  0  0  0
    3.1852    0.7587    3.0129 H   0  0  0  0  0  0  0  0  0  0  0  0
    4.9077    0.7839    3.4267 H   0  0  0  0  0  0  0  0  0  0  0  0
   -0.3191   -0.3109    1.8224 H   0  0  0  0  0  0  0  0  0  0  0  0
   -0.5051   -2.0833    2.1372 H   0  0  0  0  0  0  0  0  0  0  0  0
   -3.1349    1.8197    2.3808 H   0  0  0  0  0  0  0  0  0  0  0  0
   -4.1257    1.2195    1.0193 H   0  0  0  0  0  0  0  0  0  0  0  0
   -2.5681   -0.5167    3.0049 H   0  0  0  0  0  0  0  0  0  0  0  0
   -4.3244   -0.3314    2.9219 H   0  0  0  0  0  0  0  0  0  0  0  0
   -3.4621   -1.1277    1.5995 H   0  0  0  0  0  0  0  0  0  0  0  0
   -3.0117   -0.0384   -3.0019 H   0  0  0  0  0  0  0  0  0  0  0  0
   -3.2815   -1.6246   -2.2328 H   0  0  0  0  0  0  0  0  0  0  0  0
   -5.6458   -0.9726   -1.7382 H   0  0  0  0  0  0  0  0  0  0  0  0
   -5.3788    0.5918   -2.5203 H   0  0  0  0  0  0  0  0  0  0  0  0
   -5.3153   -0.8961   -3.4770 H   0  0  0  0  0  0  0  0  0  0  0  0
  1  2  1  0  0  0  0
  2  3  1  0  0  0  0
  3  4  2  0  0  0  0
  4  5  2  0  0  0  0
  4  6  2  0  0  0  0
  6  7  1  0  0  0  0
  7  8  1  0  0  0  0
  4  9  1  0  0  0  0
  9 10  1  0  0  0  0
 10 11  1  0  0  0  0
 11 12  1  0  0  0  0
 12 13  2  0  0  0  0
 12 14  2  0  0  0  0
 14 15  1  0  0  0  0
 15 16  1  0  0  0  0
 12 17  2  0  0  0  0
 17 18  1  0  0  0  0
 18 19  1  0  0  0  0
  1 20  1  0  0  0  0
  1 21  1  0  0  0  0
  1 22  1  0  0  0  0
  2 23  1  0  0  0  0
  2 24  1  0  0  0  0
  7 25  1  0  0  0  0
  7 26  1  0  0  0  0
  8 27  1  0  0  0  0
  8 28  1  0  0  0  0
  8 29  1  0  0  0  0
 10 30  1  0  0  0  0
 10 31  1  0  0  0  0
 15 32  1  0  0  0  0
 15 33  1  0  0  0  0
 16 34  1  0  0  0  0
 16 35  1  0  0  0  0
 16 36  1  0  0  0  0
 18 37  1  0  0  0  0
 18 38  1  0  0  0  0
 19 39  1  0  0  0  0
 19 40  1  0  0  0  0
 19 41  1  0  0  0  0
M  END
