41
 xtb: 6.7.1 (edcfbbe)
C            4.64332381916642       -0.70387417993161       -2.36087898081959
C            4.67761228154747       -1.19200492451755       -0.93426310218898
O            3.33131607279238       -1.46871491792299       -0.41329644397511
P            2.33684517054479       -0.31434967441544        0.10901264708841
S            3.14525109504564        1.30334763308154        0.83262367788928
O            1.37929598811897       -1.15119640007515        1.09044872506189
C            1.64702611495728       -1.25021431658909        2.53291300810859
C            2.83768796228873       -2.12849623705150        2.82977796693352
S            1.07994681421516       -0.06484352196132       -1.57895746579555
C            0.22798450551574        1.49863284967107       -1.13131251609272
S           -0.89800154238482        1.46097577976704        0.31501609386754
P           -2.50880771434106        0.31103511787017       -0.47090083726803
S           -2.90885847799064        0.60885420906890       -2.35156062764098
O           -3.64125928646199        0.57128003280288        0.63989240736568
C           -4.09236017756765        1.88577017131526        1.12354474671650
C           -4.77416201312226        2.70912810051168        0.06074317803546
O           -2.19972270813119       -1.24297198880806       -0.22409680896052
C           -1.92413492238531       -1.78862971867494        1.11784252415964
C           -3.11024405789713       -2.59012266536105        1.59192640523084
H            4.10668018219749       -1.40752085644371       -3.00355242238623
H            4.17452102093994        0.28064009585641       -2.43945560689266
H            5.67231777071805       -0.62118499704151       -2.72473443581474
H            5.16331971000170       -0.47489651486406       -0.26582667665157
H            5.18454439663569       -2.15546895145994       -0.85157880999637
H            1.77359308403699       -0.23728024981790        2.92747878850200
H            0.72343656863617       -1.67511089970127        2.93223074862657
H            2.71362566117095       -3.11990918110483        2.38495167073110
H            3.76878786758657       -1.68643610634539        2.46235623362526
H            2.92273760431800       -2.24487710594126        3.91512665163327
H           -0.33499202896653        1.79261176658649       -2.02230272209314
H            0.97534940309030        2.26300223379439       -0.90046292636019
H           -4.78162352350957        1.62519817487796        1.92898155111032
H           -3.23380226823296        2.40841595823432        1.55523592843087
H           -5.59271894074188        2.15262919657995       -0.40377521014965
H           -5.19081487567732        3.60077172395447        0.54067852287518
H           -4.07591882668214        3.03279454104852       -0.71475374903129
H           -1.03952001435235       -2.41511128972911        0.98605180407248
H           -1.67834325468131       -0.97272996664658        1.80457104268248
H           -2.86459329053461       -3.04602598974924        2.55660621584005
H           -3.99146965319553       -1.95674760787644        1.72266862333186
H           -3.34565271140536       -3.39021138510835        0.88442283314571
