  29
 
 C         -6.0173495923        0.2602980066       -0.0061852548
 C         -4.7140776731       -0.5302972615       -0.0109674667
 C         -3.4925494566        0.3860600692        0.0021799530
 C         -2.1834528341       -0.4004814323       -0.0019049388
 C         -0.9640304808        0.5182862234        0.0083788847
 C          0.3429539558       -0.2701354602       -0.0012036383
 C          1.5572953733        0.6535982474        0.0054525856
 C          2.8558809992       -0.1069391332       -0.0037805433
 O          2.9701565497       -1.3139041408        0.0000532872
 O          3.8995883208        0.7200325834       -0.0152166008
 C          5.2053228968        0.1367588465       -0.0257145755
 H         -6.8721892453       -0.4114628731       -0.0176941850
 H         -6.0745579204        0.9050629262       -0.8803521592
 H         -6.0812963262        0.8833394953        0.8831184259
 H         -4.6828839945       -1.1841999309        0.8634490596
 H         -4.6779796822       -1.1651934071       -0.8991090505
 H         -3.5239678907        1.0391923622       -0.8729760749
 H         -3.5293506266        1.0214571116        0.8900721829
 H         -2.1477358223       -1.0380875573       -0.8882018359
 H         -2.1511795675       -1.0534094434        0.8732723457
 H         -0.9988407611        1.1712410814       -0.8661766049
 H         -0.9982346234        1.1509872904        0.8976717803
 H          0.3880460647       -0.9260850708        0.8703492687
 H          0.3847308170       -0.9090331914       -0.8855334379
 H          1.5507810090        1.3103718678       -0.8665246456
 H          1.5530651697        1.2925221757        0.8909323197
 H          5.8976122392        0.9720853896       -0.0398320127
 H          5.3265095754       -0.4895670285       -0.9102992042
 H          5.3473329900       -0.4763861245        0.8648645398
          29
        -36.61316853
 C         -4.5550318973        0.7925678011       -0.2161807208
 C         -3.0507763781        0.8354362274        0.0253297775
 C         -2.4298279861       -0.5593292154       -0.0051930679
 C         -0.9215109816       -0.5218117836        0.2313358010
 C         -0.3043612317       -1.9176750748        0.1968340805
 C          1.1828382850       -1.9378350252        0.5484705578
 C          2.0638725902       -1.2453704880       -0.4963620756
 C          1.9785299934        0.2577212320       -0.4778331484
 O          1.9078416342        0.9549564150       -1.4712167833
 O          2.0441354313        0.7568320353        0.7508090139
 C          1.9901797067        2.1768549078        0.8907974674
 H         -4.7713946551        0.3563870049       -1.1887893841
 H         -4.9757334068        1.7946077678       -0.1873313673
 H         -5.0450832851        0.1906714531        0.5457361780
 H         -2.5769091850        1.4563313809       -0.7390985660
 H         -2.8522476233        1.2965023531        0.9956872241
 H         -2.9001307671       -1.1793925362        0.7614741976
 H         -2.6307938229       -1.0211547382       -0.9747026652
 H         -0.7197396579       -0.0617720155        1.2020106041
 H         -0.4612483253        0.1043425485       -0.5373021232
 H         -0.8347561053       -2.5503755131        0.9118624075
 H         -0.4477471297       -2.3490271529       -0.7964045961
 H          1.3387632020       -1.4632248215        1.5177429605
 H          1.5053435863       -2.9772333353        0.6227459513
 H          3.1093889958       -1.4924411812       -0.2980394824
 H          1.8162742089       -1.5829579590       -1.5033402085
 H          2.7022060618        2.6484526060        0.2122666325
 H          2.2405286265        2.3808224800        1.9271134381
 H          0.9862636050        2.5336195604        0.6557016909
