 xtb: 6.7.1 (edcfbbe)
          04092507313D

 38 37  0     0  0            999 V2000
    2.8393   -3.8210    0.2926 C   0  0  0  0  0  0  0  0  0  0  0  0
    2.7390   -2.3417    0.6045 C   0  0  0  0  0  0  0  0  0  0  0  0
    2.3733   -1.6571   -0.6095 O   0  0  0  0  0  0  0  0  0  0  0  0
    2.1030   -0.3753   -0.5470 C   0  0  0  0  0  0  0  0  0  0  0  0
    2.1348    0.2920    0.4680 O   0  0  0  0  0  0  0  0  0  0  0  0
    1.7500    0.2091   -1.9013 C   0  0  0  0  0  0  0  0  0  0  0  0
    0.4059    0.9393   -1.8248 C   0  0  0  0  0  0  0  0  0  0  0  0
    0.2798    1.5746   -2.7042 H   0  0  0  0  0  0  0  0  0  0  0  0
    0.3107    1.7937   -0.5760 C   0  0  0  0  0  0  0  0  0  0  0  0
   -0.5230    1.5721    0.2908 O   0  0  0  0  0  0  0  0  0  0  0  0
    1.1374    2.7880   -0.5905 O   0  0  0  0  0  0  0  0  0  0  0  0
    1.2391    3.6658    0.5559 C   0  0  0  0  0  0  0  0  0  0  0  0
    2.6312    3.5441    1.1491 C   0  0  0  0  0  0  0  0  0  0  0  0
   -1.0112   -0.2159   -1.8478 S   0  0  0  0  0  0  0  0  0  0  0  0
   -1.6283   -0.4986    0.1567 P   0  0  0  0  0  0  0  0  0  0  0  0
   -0.5596   -1.0212    1.7278 S   0  0  0  0  0  0  0  0  0  0  0  0
   -2.9065    0.4114    0.4913 O   0  0  0  0  0  0  0  0  0  0  0  0
   -2.9774    1.4140    1.5022 C   0  0  0  0  0  0  0  0  0  0  0  0
   -2.4268   -1.7901   -0.4003 O   0  0  0  0  0  0  0  0  0  0  0  0
   -3.2063   -2.6243    0.4551 C   0  0  0  0  0  0  0  0  0  0  0  0
    3.1267   -4.3561    1.1913 H   0  0  0  0  0  0  0  0  0  0  0  0
    1.8781   -4.1919   -0.0512 H   0  0  0  0  0  0  0  0  0  0  0  0
    3.5811   -3.9885   -0.4825 H   0  0  0  0  0  0  0  0  0  0  0  0
    3.6921   -1.9313    0.9518 H   0  0  0  0  0  0  0  0  0  0  0  0
    1.9764   -2.1331    1.3627 H   0  0  0  0  0  0  0  0  0  0  0  0
    1.7042   -0.5830   -2.6462 H   0  0  0  0  0  0  0  0  0  0  0  0
    2.5268    0.9299   -2.1642 H   0  0  0  0  0  0  0  0  0  0  0  0
    1.0536    4.6700    0.1701 H   0  0  0  0  0  0  0  0  0  0  0  0
    0.4724    3.3884    1.2826 H   0  0  0  0  0  0  0  0  0  0  0  0
    2.7075    4.1878    2.0189 H   0  0  0  0  0  0  0  0  0  0  0  0
    2.8113    2.5141    1.4487 H   0  0  0  0  0  0  0  0  0  0  0  0
    3.3782    3.8352    0.4171 H   0  0  0  0  0  0  0  0  0  0  0  0
   -3.9787    1.3474    1.9230 H   0  0  0  0  0  0  0  0  0  0  0  0
   -2.8107    2.3922    1.0553 H   0  0  0  0  0  0  0  0  0  0  0  0
   -2.2269    1.2263    2.2722 H   0  0  0  0  0  0  0  0  0  0  0  0
   -4.1528   -2.1378    0.6898 H   0  0  0  0  0  0  0  0  0  0  0  0
   -2.6579   -2.8315    1.3773 H   0  0  0  0  0  0  0  0  0  0  0  0
   -3.3752   -3.5430   -0.1012 H   0  0  0  0  0  0  0  0  0  0  0  0
  1  2  1  0  0  0  0
  2  3  1  0  0  0  0
  3  4  4  0  0  0  0
  4  5  2  0  0  0  0
  4  6  1  0  0  0  0
  6  7  1  0  0  0  0
  7  8  1  0  0  0  0
  7  9  1  0  0  0  0
  9 10  2  0  0  0  0
  9 11  4  0  0  0  0
 11 12  1  0  0  0  0
 12 13  1  0  0  0  0
  7 14  1  0  0  0  0
 14 15  1  0  0  0  0
 15 16  2  0  0  0  0
 15 17  1  0  0  0  0
 17 18  1  0  0  0  0
 15 19  1  0  0  0  0
 19 20  1  0  0  0  0
  1 21  1  0  0  0  0
  1 22  1  0  0  0  0
  1 23  1  0  0  0  0
  2 24  1  0  0  0  0
  2 25  1  0  0  0  0
  6 26  1  0  0  0  0
  6 27  1  0  0  0  0
 12 28  1  0  0  0  0
 12 29  1  0  0  0  0
 13 30  1  0  0  0  0
 13 31  1  0  0  0  0
 13 32  1  0  0  0  0
 18 33  1  0  0  0  0
 18 34  1  0  0  0  0
 18 35  1  0  0  0  0
 20 36  1  0  0  0  0
 20 37  1  0  0  0  0
 20 38  1  0  0  0  0
M  END
