41
 xtb: 6.7.1 (edcfbbe)
C            4.48301660612405       -2.59967695232200        0.03278240401733
C            4.41313110074852       -1.84545117703868       -1.27242343180159
O            3.07514637462094       -1.28409355229555       -1.51997127577125
P            2.51741821295487       -0.03010540037319       -0.68156967201088
S            3.71639144601900        1.46928167115061       -0.35368443445182
O            1.87989549134160       -0.70573969804266        0.63546785998249
C            2.15470300325256       -0.23882889533845        1.99902430962291
C            1.27652049752313       -1.04152918594881        2.92411339709173
S            0.87217164138593        0.31413644641284       -1.97887700685259
C            0.30402256552205        1.94269588466232       -1.36043166740947
S           -0.40630711330386        2.00729415815232        0.33323725274039
P           -2.08087529698299        0.72431143771780        0.10636457491831
S           -3.02577983188816        0.85965780505276       -1.59038350765079
O           -2.89741946824719        1.07855005738579        1.44707400725291
C           -3.68216088744835        2.32398573699814        1.54007891606485
C           -5.13438898150966        1.97159231310959        1.73216495740380
O           -1.50178373951825       -0.71264058074221        0.51529939337073
C           -1.93483173219693       -1.96134571033842       -0.12682837507801
C           -1.02528447584594       -3.05085511115324        0.37979248630027
H            3.70162086625065       -3.36316834680642        0.08660695078431
H            5.45649222628450       -3.09748403933066        0.09208886924332
H            4.39182878461319       -1.93215710027689        0.89444061568928
H            4.57051781436436       -2.50614525875707       -2.12684102310646
H            5.13962849226537       -1.02787324898380       -1.31579320407922
H            3.21669698719731       -0.39660788799581        2.20856630167293
H            1.93286267834437        0.83001393347757        2.05596555192173
H            1.49285328945152       -0.74661294347176        3.95566590346545
H            0.21817396333121       -0.85231688169269        2.72479216038575
H            1.47503142186590       -2.11255866005808        2.82222981957656
H           -0.44984184282792        2.27435904855484       -2.07999670450368
H            1.13876258174140        2.65037448794930       -1.35754039308284
H           -3.27195178293114        2.86412642743168        2.39700553945866
H           -3.52791919671776        2.92227762773827        0.63667561881352
H           -5.71002859510607        2.89368190339989        1.86228433539495
H           -5.52574444061558        1.43811174361318        0.86108972158328
H           -5.27097284143229        1.35124263647093        2.62274784780101
H           -2.97998874006828       -2.14111713687593        0.14262944914013
H           -1.85652250054781       -1.83849561777999       -1.21058662274403
H           -1.09520680026176       -3.14995224810207        1.46673486423772
H           -1.32840100707896       -3.99979766966441       -0.07345797604811
H            0.01424723218233       -2.85109716815807        0.10394401340401
