 xtb: 6.7.1 (edcfbbe)
          04092507313D

 38 37  0     0  0            999 V2000
    4.1706   -2.6752    1.3261 C   0  0  0  0  0  0  0  0  0  0  0  0
    4.3803   -2.1773   -0.0947 C   0  0  0  0  0  0  0  0  0  0  0  0
    3.1187   -2.0570   -0.7831 O   0  0  0  0  0  0  0  0  0  0  0  0
    2.4429   -0.9371   -0.6678 C   0  0  0  0  0  0  0  0  0  0  0  0
    2.8295    0.0486   -0.0699 O   0  0  0  0  0  0  0  0  0  0  0  0
    1.1018   -1.0156   -1.3581 C   0  0  0  0  0  0  0  0  0  0  0  0
    0.5055    0.3787   -1.5015 C   0  0  0  0  0  0  0  0  0  0  0  0
    0.8953    0.9045   -2.3739 H   0  0  0  0  0  0  0  0  0  0  0  0
    0.7246    1.2330   -0.2676 C   0  0  0  0  0  0  0  0  0  0  0  0
    0.2680    0.9269    0.8185 O   0  0  0  0  0  0  0  0  0  0  0  0
    1.3153    2.3636   -0.5471 O   0  0  0  0  0  0  0  0  0  0  0  0
    1.4927    3.3197    0.5191 C   0  0  0  0  0  0  0  0  0  0  0  0
    0.2541    4.1896    0.6641 C   0  0  0  0  0  0  0  0  0  0  0  0
   -1.3081    0.3365   -1.7167 S   0  0  0  0  0  0  0  0  0  0  0  0
   -2.0104   -0.2407    0.1905 P   0  0  0  0  0  0  0  0  0  0  0  0
   -1.2326   -1.7448    1.1963 S   0  0  0  0  0  0  0  0  0  0  0  0
   -2.3374    1.1237    0.9441 O   0  0  0  0  0  0  0  0  0  0  0  0
   -2.3063    1.2222    2.3752 C   0  0  0  0  0  0  0  0  0  0  0  0
   -3.5214   -0.5849   -0.2350 O   0  0  0  0  0  0  0  0  0  0  0  0
   -3.8590   -1.8048   -0.9015 C   0  0  0  0  0  0  0  0  0  0  0  0
    3.5824   -1.9553    1.8920 H   0  0  0  0  0  0  0  0  0  0  0  0
    3.6429   -3.6249    1.3163 H   0  0  0  0  0  0  0  0  0  0  0  0
    5.1333   -2.8029    1.8097 H   0  0  0  0  0  0  0  0  0  0  0  0
    4.9465   -2.8942   -0.6890 H   0  0  0  0  0  0  0  0  0  0  0  0
    4.8732   -1.2010   -0.0965 H   0  0  0  0  0  0  0  0  0  0  0  0
    0.4710   -1.6396   -0.7135 H   0  0  0  0  0  0  0  0  0  0  0  0
    1.1931   -1.5138   -2.3215 H   0  0  0  0  0  0  0  0  0  0  0  0
    1.7040    2.7715    1.4410 H   0  0  0  0  0  0  0  0  0  0  0  0
    2.3623    3.9029    0.2176 H   0  0  0  0  0  0  0  0  0  0  0  0
   -0.6087    3.5728    0.9083 H   0  0  0  0  0  0  0  0  0  0  0  0
    0.4114    4.9092    1.4605 H   0  0  0  0  0  0  0  0  0  0  0  0
    0.0564    4.7166   -0.2652 H   0  0  0  0  0  0  0  0  0  0  0  0
   -1.3126    0.9597    2.7397 H   0  0  0  0  0  0  0  0  0  0  0  0
   -3.0510    0.5606    2.8164 H   0  0  0  0  0  0  0  0  0  0  0  0
   -2.5362    2.2612    2.5973 H   0  0  0  0  0  0  0  0  0  0  0  0
   -3.5671   -1.7485   -1.9497 H   0  0  0  0  0  0  0  0  0  0  0  0
   -4.9377   -1.9015   -0.8089 H   0  0  0  0  0  0  0  0  0  0  0  0
   -3.3574   -2.6450   -0.4173 H   0  0  0  0  0  0  0  0  0  0  0  0
  1  2  1  0  0  0  0
  2  3  1  0  0  0  0
  3  4  4  0  0  0  0
  4  5  2  0  0  0  0
  4  6  1  0  0  0  0
  6  7  1  0  0  0  0
  7  8  1  0  0  0  0
  7  9  1  0  0  0  0
  9 10  2  0  0  0  0
  9 11  4  0  0  0  0
 11 12  1  0  0  0  0
 12 13  1  0  0  0  0
  7 14  1  0  0  0  0
 14 15  1  0  0  0  0
 15 16  2  0  0  0  0
 15 17  1  0  0  0  0
 17 18  1  0  0  0  0
 15 19  1  0  0  0  0
 19 20  1  0  0  0  0
  1 21  1  0  0  0  0
  1 22  1  0  0  0  0
  1 23  1  0  0  0  0
  2 24  1  0  0  0  0
  2 25  1  0  0  0  0
  6 26  1  0  0  0  0
  6 27  1  0  0  0  0
 12 28  1  0  0  0  0
 12 29  1  0  0  0  0
 13 30  1  0  0  0  0
 13 31  1  0  0  0  0
 13 32  1  0  0  0  0
 18 33  1  0  0  0  0
 18 34  1  0  0  0  0
 18 35  1  0  0  0  0
 20 36  1  0  0  0  0
 20 37  1  0  0  0  0
 20 38  1  0  0  0  0
M  END
