 xtb: 6.7.1 (edcfbbe)
          04092514023D

 41 40  0     0  0            999 V2000
    4.8423   -1.6715   -0.8661 C   0  0  0  0  0  0  0  0  0  0  0  0
    4.8148   -0.2554   -0.3275 C   0  0  0  0  0  0  0  0  0  0  0  0
    3.6262    0.0265    0.4336 O   0  0  0  0  0  0  0  0  0  0  0  0
    2.1877    0.2223   -0.2159 P   0  0  0  0  0  0  0  0  0  0  0  0
    2.1701    1.0621   -1.9904 S   0  0  0  0  0  0  0  0  0  0  0  0
    1.4253    1.0057    0.9370 O   0  0  0  0  0  0  0  0  0  0  0  0
    1.4005    2.4474    0.9827 C   0  0  0  0  0  0  0  0  0  0  0  0
    2.7640    3.0440    1.2603 C   0  0  0  0  0  0  0  0  0  0  0  0
    1.3128   -1.6850   -0.0322 S   0  0  0  0  0  0  0  0  0  0  0  0
    0.0416   -1.5922   -1.3473 C   0  0  0  0  0  0  0  0  0  0  0  0
   -1.6119   -2.0521   -0.7743 S   0  0  0  0  0  0  0  0  0  0  0  0
   -2.1792   -0.2610    0.1617 P   0  0  0  0  0  0  0  0  0  0  0  0
   -1.6709    1.4286   -0.7096 S   0  0  0  0  0  0  0  0  0  0  0  0
   -1.5540   -0.4897    1.6004 O   0  0  0  0  0  0  0  0  0  0  0  0
   -1.5391    0.5466    2.6052 C   0  0  0  0  0  0  0  0  0  0  0  0
   -2.6983    0.3954    3.5697 C   0  0  0  0  0  0  0  0  0  0  0  0
   -3.7353   -0.4328    0.4387 O   0  0  0  0  0  0  0  0  0  0  0  0
   -4.7680    0.0385   -0.4463 C   0  0  0  0  0  0  0  0  0  0  0  0
   -4.8350   -0.7455   -1.7407 C   0  0  0  0  0  0  0  0  0  0  0  0
    4.6898   -2.3880   -0.0633 H   0  0  0  0  0  0  0  0  0  0  0  0
    4.0599   -1.8054   -1.6112 H   0  0  0  0  0  0  0  0  0  0  0  0
    5.8063   -1.8531   -1.3319 H   0  0  0  0  0  0  0  0  0  0  0  0
    4.8799    0.4668   -1.1477 H   0  0  0  0  0  0  0  0  0  0  0  0
    5.6248   -0.0844    0.3835 H   0  0  0  0  0  0  0  0  0  0  0  0
    0.9984    2.8138    0.0318 H   0  0  0  0  0  0  0  0  0  0  0  0
    0.6944    2.6719    1.7835 H   0  0  0  0  0  0  0  0  0  0  0  0
    2.6609    4.1179    1.3837 H   0  0  0  0  0  0  0  0  0  0  0  0
    3.1875    2.6136    2.1640 H   0  0  0  0  0  0  0  0  0  0  0  0
    3.4357    2.8489    0.4253 H   0  0  0  0  0  0  0  0  0  0  0  0
    0.2989   -2.3189   -2.1138 H   0  0  0  0  0  0  0  0  0  0  0  0
    0.0281   -0.5791   -1.7573 H   0  0  0  0  0  0  0  0  0  0  0  0
   -0.5791    0.4259    3.1116 H   0  0  0  0  0  0  0  0  0  0  0  0
   -1.5665    1.5205    2.1032 H   0  0  0  0  0  0  0  0  0  0  0  0
   -2.6814   -0.5937    4.0184 H   0  0  0  0  0  0  0  0  0  0  0  0
   -2.6080    1.1453    4.3499 H   0  0  0  0  0  0  0  0  0  0  0  0
   -3.6448    0.5304    3.0520 H   0  0  0  0  0  0  0  0  0  0  0  0
   -5.6825   -0.0799    0.1374 H   0  0  0  0  0  0  0  0  0  0  0  0
   -4.5893    1.0990   -0.6490 H   0  0  0  0  0  0  0  0  0  0  0  0
   -3.9254   -0.5930   -2.3198 H   0  0  0  0  0  0  0  0  0  0  0  0
   -4.9498   -1.8074   -1.5405 H   0  0  0  0  0  0  0  0  0  0  0  0
   -5.6833   -0.3946   -2.3208 H   0  0  0  0  0  0  0  0  0  0  0  0
  1  2  1  0  0  0  0
  2  3  1  0  0  0  0
  3  4  2  0  0  0  0
  4  5  2  0  0  0  0
  4  6  2  0  0  0  0
  6  7  1  0  0  0  0
  7  8  1  0  0  0  0
  4  9  1  0  0  0  0
  9 10  1  0  0  0  0
 10 11  1  0  0  0  0
 11 12  1  0  0  0  0
 12 13  2  0  0  0  0
 12 14  2  0  0  0  0
 14 15  1  0  0  0  0
 15 16  1  0  0  0  0
 12 17  2  0  0  0  0
 17 18  1  0  0  0  0
 18 19  1  0  0  0  0
  1 20  1  0  0  0  0
  1 21  1  0  0  0  0
  1 22  1  0  0  0  0
  2 23  1  0  0  0  0
  2 24  1  0  0  0  0
  7 25  1  0  0  0  0
  7 26  1  0  0  0  0
  8 27  1  0  0  0  0
  8 28  1  0  0  0  0
  8 29  1  0  0  0  0
 10 30  1  0  0  0  0
 10 31  1  0  0  0  0
 15 32  1  0  0  0  0
 15 33  1  0  0  0  0
 16 34  1  0  0  0  0
 16 35  1  0  0  0  0
 16 36  1  0  0  0  0
 18 37  1  0  0  0  0
 18 38  1  0  0  0  0
 19 39  1  0  0  0  0
 19 40  1  0  0  0  0
 19 41  1  0  0  0  0
M  END
