 xtb: 6.7.1 (edcfbbe)
          04092507313D

 38 37  0     0  0            999 V2000
    3.1712   -3.7518    0.4741 C   0  0  0  0  0  0  0  0  0  0  0  0
    2.6933   -2.3472    0.7833 C   0  0  0  0  0  0  0  0  0  0  0  0
    2.2443   -1.7486   -0.4474 O   0  0  0  0  0  0  0  0  0  0  0  0
    2.0186   -0.4567   -0.4692 C   0  0  0  0  0  0  0  0  0  0  0  0
    2.1470    0.2878    0.4825 O   0  0  0  0  0  0  0  0  0  0  0  0
    1.6169    0.0322   -1.8483 C   0  0  0  0  0  0  0  0  0  0  0  0
    0.3406    0.8769   -1.7888 C   0  0  0  0  0  0  0  0  0  0  0  0
    0.2672    1.4959   -2.6857 H   0  0  0  0  0  0  0  0  0  0  0  0
    0.3178    1.7748   -0.5657 C   0  0  0  0  0  0  0  0  0  0  0  0
   -0.4840    1.6133    0.3401 O   0  0  0  0  0  0  0  0  0  0  0  0
    1.1769    2.7412   -0.6554 O   0  0  0  0  0  0  0  0  0  0  0  0
    1.3583    3.6535    0.4519 C   0  0  0  0  0  0  0  0  0  0  0  0
    2.7923    3.5558    0.9407 C   0  0  0  0  0  0  0  0  0  0  0  0
   -1.1762   -0.1398   -1.7965 S   0  0  0  0  0  0  0  0  0  0  0  0
   -1.7806   -0.4381    0.2140 P   0  0  0  0  0  0  0  0  0  0  0  0
   -0.5982   -1.0708    1.6548 S   0  0  0  0  0  0  0  0  0  0  0  0
   -2.9195    0.6134    0.5721 O   0  0  0  0  0  0  0  0  0  0  0  0
   -2.9024    1.4891    1.6995 C   0  0  0  0  0  0  0  0  0  0  0  0
   -2.8409   -1.5979   -0.1491 O   0  0  0  0  0  0  0  0  0  0  0  0
   -2.4233   -2.9231   -0.4791 C   0  0  0  0  0  0  0  0  0  0  0  0
    3.9944   -3.7194   -0.2334 H   0  0  0  0  0  0  0  0  0  0  0  0
    3.5034   -4.2243    1.3922 H   0  0  0  0  0  0  0  0  0  0  0  0
    2.3600   -4.3327    0.0462 H   0  0  0  0  0  0  0  0  0  0  0  0
    3.4899   -1.7221    1.1986 H   0  0  0  0  0  0  0  0  0  0  0  0
    1.8543   -2.3437    1.4873 H   0  0  0  0  0  0  0  0  0  0  0  0
    1.4750   -0.8168   -2.5148 H   0  0  0  0  0  0  0  0  0  0  0  0
    2.4319    0.6596   -2.2155 H   0  0  0  0  0  0  0  0  0  0  0  0
    1.1361    4.6462    0.0552 H   0  0  0  0  0  0  0  0  0  0  0  0
    0.6502    3.3932    1.2420 H   0  0  0  0  0  0  0  0  0  0  0  0
    2.9317    4.2301    1.7789 H   0  0  0  0  0  0  0  0  0  0  0  0
    2.9987    2.5373    1.2612 H   0  0  0  0  0  0  0  0  0  0  0  0
    3.4791    3.8225    0.1433 H   0  0  0  0  0  0  0  0  0  0  0  0
   -3.8801    1.4064    2.1701 H   0  0  0  0  0  0  0  0  0  0  0  0
   -2.7236    2.5056    1.3529 H   0  0  0  0  0  0  0  0  0  0  0  0
   -2.1189    1.1959    2.4009 H   0  0  0  0  0  0  0  0  0  0  0  0
   -1.6717   -3.2658    0.2357 H   0  0  0  0  0  0  0  0  0  0  0  0
   -2.0167   -2.9503   -1.4904 H   0  0  0  0  0  0  0  0  0  0  0  0
   -3.3175   -3.5375   -0.4106 H   0  0  0  0  0  0  0  0  0  0  0  0
  1  2  1  0  0  0  0
  2  3  1  0  0  0  0
  3  4  4  0  0  0  0
  4  5  2  0  0  0  0
  4  6  1  0  0  0  0
  6  7  1  0  0  0  0
  7  8  1  0  0  0  0
  7  9  1  0  0  0  0
  9 10  2  0  0  0  0
  9 11  4  0  0  0  0
 11 12  1  0  0  0  0
 12 13  1  0  0  0  0
  7 14  1  0  0  0  0
 14 15  1  0  0  0  0
 15 16  2  0  0  0  0
 15 17  1  0  0  0  0
 17 18  1  0  0  0  0
 15 19  1  0  0  0  0
 19 20  1  0  0  0  0
  1 21  1  0  0  0  0
  1 22  1  0  0  0  0
  1 23  1  0  0  0  0
  2 24  1  0  0  0  0
  2 25  1  0  0  0  0
  6 26  1  0  0  0  0
  6 27  1  0  0  0  0
 12 28  1  0  0  0  0
 12 29  1  0  0  0  0
 13 30  1  0  0  0  0
 13 31  1  0  0  0  0
 13 32  1  0  0  0  0
 18 33  1  0  0  0  0
 18 34  1  0  0  0  0
 18 35  1  0  0  0  0
 20 36  1  0  0  0  0
 20 37  1  0  0  0  0
 20 38  1  0  0  0  0
M  END
