 xtb: 6.7.1 (edcfbbe)
          04092505213D

 41 40  0     0  0            999 V2000
    1.9486    0.8820    3.1259 C   0  0  0  0  0  0  0  0  0  0  0  0
    1.2511   -0.1372    2.2478 C   0  0  0  0  0  0  0  0  0  0  0  0
    1.9071   -0.1334    0.9681 O   0  0  0  0  0  0  0  0  0  0  0  0
    1.9176   -1.3776   -0.0229 P   0  0  0  0  0  0  0  0  0  0  0  0
    1.9723   -3.1306    0.8451 S   0  0  0  0  0  0  0  0  0  0  0  0
    3.1155   -1.0044   -0.9908 O   0  0  0  0  0  0  0  0  0  0  0  0
    4.4673   -1.4373   -0.7257 C   0  0  0  0  0  0  0  0  0  0  0  0
    5.0254   -0.8141    0.5359 C   0  0  0  0  0  0  0  0  0  0  0  0
    0.3128   -1.0737   -1.3674 S   0  0  0  0  0  0  0  0  0  0  0  0
    0.5839    0.6794   -1.7628 C   0  0  0  0  0  0  0  0  0  0  0  0
    0.0054    1.8207   -0.4727 S   0  0  0  0  0  0  0  0  0  0  0  0
   -1.9726    1.1131   -0.3767 P   0  0  0  0  0  0  0  0  0  0  0  0
   -2.8202    0.5741   -2.0654 S   0  0  0  0  0  0  0  0  0  0  0  0
   -2.7435    2.2568    0.4110 O   0  0  0  0  0  0  0  0  0  0  0  0
   -3.2238    3.4498   -0.2437 C   0  0  0  0  0  0  0  0  0  0  0  0
   -4.3705    4.0050    0.5768 C   0  0  0  0  0  0  0  0  0  0  0  0
   -1.8545    0.0072    0.7523 O   0  0  0  0  0  0  0  0  0  0  0  0
   -2.7905   -1.0864    0.8845 C   0  0  0  0  0  0  0  0  0  0  0  0
   -2.0780   -2.2445    1.5520 C   0  0  0  0  0  0  0  0  0  0  0  0
    2.9873    0.6023    3.2775 H   0  0  0  0  0  0  0  0  0  0  0  0
    1.9098    1.8593    2.6529 H   0  0  0  0  0  0  0  0  0  0  0  0
    1.4459    0.9265    4.0864 H   0  0  0  0  0  0  0  0  0  0  0  0
    0.2007    0.1269    2.0973 H   0  0  0  0  0  0  0  0  0  0  0  0
    1.3110   -1.1473    2.6677 H   0  0  0  0  0  0  0  0  0  0  0  0
    4.4703   -2.5291   -0.6515 H   0  0  0  0  0  0  0  0  0  0  0  0
    5.0176   -1.1237   -1.6137 H   0  0  0  0  0  0  0  0  0  0  0  0
    4.9239    0.2674    0.4992 H   0  0  0  0  0  0  0  0  0  0  0  0
    4.4851   -1.1925    1.4027 H   0  0  0  0  0  0  0  0  0  0  0  0
    6.0742   -1.0770    0.6329 H   0  0  0  0  0  0  0  0  0  0  0  0
    0.0190    0.8598   -2.6763 H   0  0  0  0  0  0  0  0  0  0  0  0
    1.6445    0.8666   -1.9044 H   0  0  0  0  0  0  0  0  0  0  0  0
   -2.3941    4.1586   -0.3021 H   0  0  0  0  0  0  0  0  0  0  0  0
   -3.5464    3.1861   -1.2565 H   0  0  0  0  0  0  0  0  0  0  0  0
   -5.1857    3.2878    0.6148 H   0  0  0  0  0  0  0  0  0  0  0  0
   -4.0355    4.2117    1.5890 H   0  0  0  0  0  0  0  0  0  0  0  0
   -4.7233    4.9233    0.1190 H   0  0  0  0  0  0  0  0  0  0  0  0
   -3.6302   -0.7342    1.4877 H   0  0  0  0  0  0  0  0  0  0  0  0
   -3.1502   -1.3594   -0.1134 H   0  0  0  0  0  0  0  0  0  0  0  0
   -1.7194   -1.9513    2.5347 H   0  0  0  0  0  0  0  0  0  0  0  0
   -2.7693   -3.0744    1.6556 H   0  0  0  0  0  0  0  0  0  0  0  0
   -1.2296   -2.5678    0.9517 H   0  0  0  0  0  0  0  0  0  0  0  0
  1  2  1  0  0  0  0
  2  3  1  0  0  0  0
  3  4  2  0  0  0  0
  4  5  2  0  0  0  0
  4  6  2  0  0  0  0
  6  7  1  0  0  0  0
  7  8  1  0  0  0  0
  4  9  1  0  0  0  0
  9 10  1  0  0  0  0
 10 11  1  0  0  0  0
 11 12  1  0  0  0  0
 12 13  2  0  0  0  0
 12 14  2  0  0  0  0
 14 15  1  0  0  0  0
 15 16  1  0  0  0  0
 12 17  2  0  0  0  0
 17 18  1  0  0  0  0
 18 19  1  0  0  0  0
  1 20  1  0  0  0  0
  1 21  1  0  0  0  0
  1 22  1  0  0  0  0
  2 23  1  0  0  0  0
  2 24  1  0  0  0  0
  7 25  1  0  0  0  0
  7 26  1  0  0  0  0
  8 27  1  0  0  0  0
  8 28  1  0  0  0  0
  8 29  1  0  0  0  0
 10 30  1  0  0  0  0
 10 31  1  0  0  0  0
 15 32  1  0  0  0  0
 15 33  1  0  0  0  0
 16 34  1  0  0  0  0
 16 35  1  0  0  0  0
 16 36  1  0  0  0  0
 18 37  1  0  0  0  0
 18 38  1  0  0  0  0
 19 39  1  0  0  0  0
 19 40  1  0  0  0  0
 19 41  1  0  0  0  0
M  END
