 xtb: 6.7.1 (edcfbbe)
          04092505213D

 41 40  0     0  0            999 V2000
    3.0132    1.7301   -2.7577 C   0  0  0  0  0  0  0  0  0  0  0  0
    3.1016    1.4983   -1.2648 C   0  0  0  0  0  0  0  0  0  0  0  0
    2.5066    0.2098   -0.9850 O   0  0  0  0  0  0  0  0  0  0  0  0
    2.0955   -0.2091    0.4759 P   0  0  0  0  0  0  0  0  0  0  0  0
    1.1243    1.0802    1.5962 S   0  0  0  0  0  0  0  0  0  0  0  0
    3.5255   -0.5764    1.0809 O   0  0  0  0  0  0  0  0  0  0  0  0
    3.7060   -0.9210    2.4682 C   0  0  0  0  0  0  0  0  0  0  0  0
    5.1660   -0.7139    2.8176 C   0  0  0  0  0  0  0  0  0  0  0  0
    1.1763   -2.0659    0.1253 S   0  0  0  0  0  0  0  0  0  0  0  0
   -0.4194   -1.8298    0.9872 C   0  0  0  0  0  0  0  0  0  0  0  0
   -1.8595   -1.9108   -0.1046 S   0  0  0  0  0  0  0  0  0  0  0  0
   -1.9917    0.0965   -0.7335 P   0  0  0  0  0  0  0  0  0  0  0  0
   -0.5233    0.9467   -1.7069 S   0  0  0  0  0  0  0  0  0  0  0  0
   -2.3417    0.7803    0.6696 O   0  0  0  0  0  0  0  0  0  0  0  0
   -2.1625    2.1861    0.9011 C   0  0  0  0  0  0  0  0  0  0  0  0
   -3.2202    3.0033    0.1898 C   0  0  0  0  0  0  0  0  0  0  0  0
   -3.2793    0.0993   -1.6558 O   0  0  0  0  0  0  0  0  0  0  0  0
   -4.4520   -0.7341   -1.4974 C   0  0  0  0  0  0  0  0  0  0  0  0
   -5.2082   -0.4403   -0.2191 C   0  0  0  0  0  0  0  0  0  0  0  0
    3.4537    2.6922   -2.9974 H   0  0  0  0  0  0  0  0  0  0  0  0
    3.5415    0.9432   -3.2875 H   0  0  0  0  0  0  0  0  0  0  0  0
    1.9700    1.7223   -3.0653 H   0  0  0  0  0  0  0  0  0  0  0  0
    2.5477    2.2635   -0.7104 H   0  0  0  0  0  0  0  0  0  0  0  0
    4.1373    1.4753   -0.9166 H   0  0  0  0  0  0  0  0  0  0  0  0
    3.0546   -0.2815    3.0737 H   0  0  0  0  0  0  0  0  0  0  0  0
    3.4090   -1.9650    2.5982 H   0  0  0  0  0  0  0  0  0  0  0  0
    5.4385    0.3296    2.6866 H   0  0  0  0  0  0  0  0  0  0  0  0
    5.3274   -0.9988    3.8520 H   0  0  0  0  0  0  0  0  0  0  0  0
    5.7910   -1.3249    2.1728 H   0  0  0  0  0  0  0  0  0  0  0  0
   -0.4021   -0.8692    1.5091 H   0  0  0  0  0  0  0  0  0  0  0  0
   -0.5350   -2.6580    1.6810 H   0  0  0  0  0  0  0  0  0  0  0  0
   -2.2203    2.2884    1.9857 H   0  0  0  0  0  0  0  0  0  0  0  0
   -1.1603    2.4735    0.5668 H   0  0  0  0  0  0  0  0  0  0  0  0
   -3.0603    4.0564    0.3980 H   0  0  0  0  0  0  0  0  0  0  0  0
   -3.1469    2.8379   -0.8852 H   0  0  0  0  0  0  0  0  0  0  0  0
   -4.2115    2.7150    0.5287 H   0  0  0  0  0  0  0  0  0  0  0  0
   -5.0466   -0.4967   -2.3812 H   0  0  0  0  0  0  0  0  0  0  0  0
   -4.1371   -1.7798   -1.5336 H   0  0  0  0  0  0  0  0  0  0  0  0
   -6.0932   -1.0678   -0.1822 H   0  0  0  0  0  0  0  0  0  0  0  0
   -4.5850   -0.6555    0.6459 H   0  0  0  0  0  0  0  0  0  0  0  0
   -5.5098    0.6034   -0.1899 H   0  0  0  0  0  0  0  0  0  0  0  0
  1  2  1  0  0  0  0
  2  3  1  0  0  0  0
  3  4  2  0  0  0  0
  4  5  2  0  0  0  0
  4  6  2  0  0  0  0
  6  7  1  0  0  0  0
  7  8  1  0  0  0  0
  4  9  1  0  0  0  0
  9 10  1  0  0  0  0
 10 11  1  0  0  0  0
 11 12  1  0  0  0  0
 12 13  2  0  0  0  0
 12 14  1  0  0  0  0
 14 15  1  0  0  0  0
 15 16  1  0  0  0  0
 12 17  2  0  0  0  0
 17 18  1  0  0  0  0
 18 19  1  0  0  0  0
  1 20  1  0  0  0  0
  1 21  1  0  0  0  0
  1 22  1  0  0  0  0
  2 23  1  0  0  0  0
  2 24  1  0  0  0  0
  7 25  1  0  0  0  0
  7 26  1  0  0  0  0
  8 27  1  0  0  0  0
  8 28  1  0  0  0  0
  8 29  1  0  0  0  0
 10 30  1  0  0  0  0
 10 31  1  0  0  0  0
 15 32  1  0  0  0  0
 15 33  1  0  0  0  0
 16 34  1  0  0  0  0
 16 35  1  0  0  0  0
 16 36  1  0  0  0  0
 18 37  1  0  0  0  0
 18 38  1  0  0  0  0
 19 39  1  0  0  0  0
 19 40  1  0  0  0  0
 19 41  1  0  0  0  0
M  END
