 xtb: 6.7.1 (edcfbbe)
          04092505203D

 41 40  0     0  0            999 V2000
    5.4060   -0.0762   -0.7769 C   0  0  0  0  0  0  0  0  0  0  0  0
    4.4236   -0.8140    0.1120 C   0  0  0  0  0  0  0  0  0  0  0  0
    3.3744    0.0676    0.5583 O   0  0  0  0  0  0  0  0  0  0  0  0
    1.9630    0.1426   -0.1747 P   0  0  0  0  0  0  0  0  0  0  0  0
    2.0162    0.4152   -2.1194 S   0  0  0  0  0  0  0  0  0  0  0  0
    1.2417    1.2422    0.7045 O   0  0  0  0  0  0  0  0  0  0  0  0
    1.2810    2.6417    0.3696 C   0  0  0  0  0  0  0  0  0  0  0  0
    2.6761    3.2120    0.5035 C   0  0  0  0  0  0  0  0  0  0  0  0
    1.0754   -1.6397    0.4926 S   0  0  0  0  0  0  0  0  0  0  0  0
   -0.1767   -1.9341   -0.8037 C   0  0  0  0  0  0  0  0  0  0  0  0
   -1.8536   -1.9907   -0.1457 S   0  0  0  0  0  0  0  0  0  0  0  0
   -2.1376    0.0997    0.1315 P   0  0  0  0  0  0  0  0  0  0  0  0
   -1.4142    1.2308   -1.2946 S   0  0  0  0  0  0  0  0  0  0  0  0
   -1.5160    0.5387    1.5121 O   0  0  0  0  0  0  0  0  0  0  0  0
   -1.9267    0.0388    2.8115 C   0  0  0  0  0  0  0  0  0  0  0  0
   -0.9601   -1.0114    3.3210 C   0  0  0  0  0  0  0  0  0  0  0  0
   -3.6910    0.2022    0.4448 O   0  0  0  0  0  0  0  0  0  0  0  0
   -4.7386   -0.4275   -0.3182 C   0  0  0  0  0  0  0  0  0  0  0  0
   -4.6878   -0.0727   -1.7890 C   0  0  0  0  0  0  0  0  0  0  0  0
    5.8165    0.7809   -0.2505 H   0  0  0  0  0  0  0  0  0  0  0  0
    6.2117   -0.7480   -1.0540 H   0  0  0  0  0  0  0  0  0  0  0  0
    4.9071    0.2696   -1.6799 H   0  0  0  0  0  0  0  0  0  0  0  0
    4.9002   -1.1634    1.0297 H   0  0  0  0  0  0  0  0  0  0  0  0
    3.9821   -1.6641   -0.4161 H   0  0  0  0  0  0  0  0  0  0  0  0
    0.9015    2.7652   -0.6507 H   0  0  0  0  0  0  0  0  0  0  0  0
    0.5790    3.0956    1.0710 H   0  0  0  0  0  0  0  0  0  0  0  0
    3.0703    3.0089    1.4958 H   0  0  0  0  0  0  0  0  0  0  0  0
    3.3308    2.7555   -0.2380 H   0  0  0  0  0  0  0  0  0  0  0  0
    2.6433    4.2838    0.3348 H   0  0  0  0  0  0  0  0  0  0  0  0
    0.0137   -2.9120   -1.2378 H   0  0  0  0  0  0  0  0  0  0  0  0
   -0.0968   -1.1436   -1.5558 H   0  0  0  0  0  0  0  0  0  0  0  0
   -1.9199    0.9239    3.4497 H   0  0  0  0  0  0  0  0  0  0  0  0
   -2.9427   -0.3525    2.7375 H   0  0  0  0  0  0  0  0  0  0  0  0
   -1.2248   -1.2665    4.3423 H   0  0  0  0  0  0  0  0  0  0  0  0
   -1.0004   -1.9096    2.7093 H   0  0  0  0  0  0  0  0  0  0  0  0
    0.0560   -0.6248    3.3006 H   0  0  0  0  0  0  0  0  0  0  0  0
   -4.6590   -1.5088   -0.1780 H   0  0  0  0  0  0  0  0  0  0  0  0
   -5.6519   -0.0562    0.1499 H   0  0  0  0  0  0  0  0  0  0  0  0
   -3.7764   -0.4625   -2.2400 H   0  0  0  0  0  0  0  0  0  0  0  0
   -5.5452   -0.5054   -2.2942 H   0  0  0  0  0  0  0  0  0  0  0  0
   -4.6984    1.0067   -1.9203 H   0  0  0  0  0  0  0  0  0  0  0  0
  1  2  1  0  0  0  0
  2  3  1  0  0  0  0
  3  4  2  0  0  0  0
  4  5  2  0  0  0  0
  4  6  2  0  0  0  0
  6  7  1  0  0  0  0
  7  8  1  0  0  0  0
  4  9  1  0  0  0  0
  9 10  1  0  0  0  0
 10 11  1  0  0  0  0
 11 12  1  0  0  0  0
 12 13  2  0  0  0  0
 12 14  2  0  0  0  0
 14 15  1  0  0  0  0
 15 16  1  0  0  0  0
 12 17  2  0  0  0  0
 17 18  1  0  0  0  0
 18 19  1  0  0  0  0
  1 20  1  0  0  0  0
  1 21  1  0  0  0  0
  1 22  1  0  0  0  0
  2 23  1  0  0  0  0
  2 24  1  0  0  0  0
  7 25  1  0  0  0  0
  7 26  1  0  0  0  0
  8 27  1  0  0  0  0
  8 28  1  0  0  0  0
  8 29  1  0  0  0  0
 10 30  1  0  0  0  0
 10 31  1  0  0  0  0
 15 32  1  0  0  0  0
 15 33  1  0  0  0  0
 16 34  1  0  0  0  0
 16 35  1  0  0  0  0
 16 36  1  0  0  0  0
 18 37  1  0  0  0  0
 18 38  1  0  0  0  0
 19 39  1  0  0  0  0
 19 40  1  0  0  0  0
 19 41  1  0  0  0  0
M  END
