 xtb: 6.7.1 (edcfbbe)
          04092505203D

 41 40  0     0  0            999 V2000
    5.3832   -0.0658   -1.0673 C   0  0  0  0  0  0  0  0  0  0  0  0
    4.4902   -0.8429   -0.1190 C   0  0  0  0  0  0  0  0  0  0  0  0
    3.5023    0.0133    0.4849 O   0  0  0  0  0  0  0  0  0  0  0  0
    2.0506    0.2221   -0.1326 P   0  0  0  0  0  0  0  0  0  0  0  0
    1.9712    0.8465   -1.9924 S   0  0  0  0  0  0  0  0  0  0  0  0
    1.4220    1.1590    0.9782 O   0  0  0  0  0  0  0  0  0  0  0  0
    1.4282    2.5964    0.8459 C   0  0  0  0  0  0  0  0  0  0  0  0
    2.8329    3.1567    0.8799 C   0  0  0  0  0  0  0  0  0  0  0  0
    1.1541   -1.6533    0.2588 S   0  0  0  0  0  0  0  0  0  0  0  0
    0.1072   -1.8449   -1.2259 C   0  0  0  0  0  0  0  0  0  0  0  0
   -1.6087   -2.2554   -0.8269 S   0  0  0  0  0  0  0  0  0  0  0  0
   -2.1327   -0.4839    0.1839 P   0  0  0  0  0  0  0  0  0  0  0  0
   -1.4111    1.1846   -0.5686 S   0  0  0  0  0  0  0  0  0  0  0  0
   -1.7066   -0.8310    1.6653 O   0  0  0  0  0  0  0  0  0  0  0  0
   -1.4639    0.1689    2.6747 C   0  0  0  0  0  0  0  0  0  0  0  0
   -2.7128    0.9660    2.9840 C   0  0  0  0  0  0  0  0  0  0  0  0
   -3.7130   -0.5932    0.2829 O   0  0  0  0  0  0  0  0  0  0  0  0
   -4.5826   -0.4302   -0.8559 C   0  0  0  0  0  0  0  0  0  0  0  0
   -5.0554    1.0057   -0.9782 C   0  0  0  0  0  0  0  0  0  0  0  0
    4.7993    0.3333   -1.8938 H   0  0  0  0  0  0  0  0  0  0  0  0
    5.8582    0.7584   -0.5426 H   0  0  0  0  0  0  0  0  0  0  0  0
    6.1470   -0.7281   -1.4615 H   0  0  0  0  0  0  0  0  0  0  0  0
    5.0576   -1.2404    0.7247 H   0  0  0  0  0  0  0  0  0  0  0  0
    3.9870   -1.6644   -0.6375 H   0  0  0  0  0  0  0  0  0  0  0  0
    0.9190    2.8585   -0.0876 H   0  0  0  0  0  0  0  0  0  0  0  0
    0.8313    2.9408    1.6919 H   0  0  0  0  0  0  0  0  0  0  0  0
    3.3860    2.8142    0.0060 H   0  0  0  0  0  0  0  0  0  0  0  0
    2.7873    4.2411    0.8670 H   0  0  0  0  0  0  0  0  0  0  0  0
    3.3478    2.8219    1.7766 H   0  0  0  0  0  0  0  0  0  0  0  0
    0.4836   -2.6834   -1.8062 H   0  0  0  0  0  0  0  0  0  0  0  0
    0.1512   -0.9167   -1.8035 H   0  0  0  0  0  0  0  0  0  0  0  0
   -1.1233   -0.4109    3.5338 H   0  0  0  0  0  0  0  0  0  0  0  0
   -0.6562    0.8210    2.3280 H   0  0  0  0  0  0  0  0  0  0  0  0
   -3.5240    0.2969    3.2590 H   0  0  0  0  0  0  0  0  0  0  0  0
   -2.5131    1.6516    3.8015 H   0  0  0  0  0  0  0  0  0  0  0  0
   -3.0104    1.5365    2.1044 H   0  0  0  0  0  0  0  0  0  0  0  0
   -4.0578   -0.7503   -1.7605 H   0  0  0  0  0  0  0  0  0  0  0  0
   -5.4154   -1.1081   -0.6607 H   0  0  0  0  0  0  0  0  0  0  0  0
   -4.2109    1.6668   -1.1611 H   0  0  0  0  0  0  0  0  0  0  0  0
   -5.7503    1.0835   -1.8081 H   0  0  0  0  0  0  0  0  0  0  0  0
   -5.5522    1.3154   -0.0630 H   0  0  0  0  0  0  0  0  0  0  0  0
  1  2  1  0  0  0  0
  2  3  1  0  0  0  0
  3  4  2  0  0  0  0
  4  5  2  0  0  0  0
  4  6  2  0  0  0  0
  6  7  1  0  0  0  0
  7  8  1  0  0  0  0
  4  9  1  0  0  0  0
  9 10  1  0  0  0  0
 10 11  1  0  0  0  0
 11 12  1  0  0  0  0
 12 13  2  0  0  0  0
 12 14  2  0  0  0  0
 14 15  1  0  0  0  0
 15 16  1  0  0  0  0
 12 17  2  0  0  0  0
 17 18  1  0  0  0  0
 18 19  1  0  0  0  0
  1 20  1  0  0  0  0
  1 21  1  0  0  0  0
  1 22  1  0  0  0  0
  2 23  1  0  0  0  0
  2 24  1  0  0  0  0
  7 25  1  0  0  0  0
  7 26  1  0  0  0  0
  8 27  1  0  0  0  0
  8 28  1  0  0  0  0
  8 29  1  0  0  0  0
 10 30  1  0  0  0  0
 10 31  1  0  0  0  0
 15 32  1  0  0  0  0
 15 33  1  0  0  0  0
 16 34  1  0  0  0  0
 16 35  1  0  0  0  0
 16 36  1  0  0  0  0
 18 37  1  0  0  0  0
 18 38  1  0  0  0  0
 19 39  1  0  0  0  0
 19 40  1  0  0  0  0
 19 41  1  0  0  0  0
M  END
