 xtb: 6.7.1 (edcfbbe)
          04092507313D

 38 37  0     0  0            999 V2000
    5.0482   -2.6130   -0.7781 C   0  0  0  0  0  0  0  0  0  0  0  0
    3.6455   -3.0646   -1.1522 C   0  0  0  0  0  0  0  0  0  0  0  0
    2.9087   -1.9883   -1.7663 O   0  0  0  0  0  0  0  0  0  0  0  0
    2.2235   -1.1712   -1.0016 C   0  0  0  0  0  0  0  0  0  0  0  0
    2.1261   -1.2648    0.2066 O   0  0  0  0  0  0  0  0  0  0  0  0
    1.5542   -0.0724   -1.8001 C   0  0  0  0  0  0  0  0  0  0  0  0
    0.3712    0.4711   -1.0136 C   0  0  0  0  0  0  0  0  0  0  0  0
   -0.0188    1.3877   -1.4664 H   0  0  0  0  0  0  0  0  0  0  0  0
    0.7436    0.7826    0.4259 C   0  0  0  0  0  0  0  0  0  0  0  0
    0.0458    0.4418    1.3632 O   0  0  0  0  0  0  0  0  0  0  0  0
    1.8066    1.5335    0.5016 O   0  0  0  0  0  0  0  0  0  0  0  0
    2.2471    2.0014    1.7942 C   0  0  0  0  0  0  0  0  0  0  0  0
    2.5769    3.4788    1.6859 C   0  0  0  0  0  0  0  0  0  0  0  0
   -0.9863   -0.7490   -0.9716 S   0  0  0  0  0  0  0  0  0  0  0  0
   -2.3127    0.2829    0.3244 P   0  0  0  0  0  0  0  0  0  0  0  0
   -2.2159    2.2374    0.3405 S   0  0  0  0  0  0  0  0  0  0  0  0
   -3.7141   -0.2362   -0.2821 O   0  0  0  0  0  0  0  0  0  0  0  0
   -4.1717    0.1827   -1.5703 C   0  0  0  0  0  0  0  0  0  0  0  0
   -2.4365   -0.3967    1.7468 O   0  0  0  0  0  0  0  0  0  0  0  0
   -2.3211   -1.8171    1.9405 C   0  0  0  0  0  0  0  0  0  0  0  0
    5.0021   -1.8375   -0.0169 H   0  0  0  0  0  0  0  0  0  0  0  0
    5.6040   -3.4579   -0.3851 H   0  0  0  0  0  0  0  0  0  0  0  0
    5.5605   -2.2221   -1.6526 H   0  0  0  0  0  0  0  0  0  0  0  0
    3.0966   -3.4052   -0.2697 H   0  0  0  0  0  0  0  0  0  0  0  0
    3.6686   -3.8463   -1.9114 H   0  0  0  0  0  0  0  0  0  0  0  0
    1.2410   -0.4589   -2.7689 H   0  0  0  0  0  0  0  0  0  0  0  0
    2.2832    0.7265   -1.9530 H   0  0  0  0  0  0  0  0  0  0  0  0
    1.4528    1.8133    2.5218 H   0  0  0  0  0  0  0  0  0  0  0  0
    3.1272    1.4087    2.0565 H   0  0  0  0  0  0  0  0  0  0  0  0
    2.9492    3.8311    2.6421 H   0  0  0  0  0  0  0  0  0  0  0  0
    3.3341    3.6365    0.9240 H   0  0  0  0  0  0  0  0  0  0  0  0
    1.6857    4.0422    1.4215 H   0  0  0  0  0  0  0  0  0  0  0  0
   -4.0879    1.2672   -1.6607 H   0  0  0  0  0  0  0  0  0  0  0  0
   -5.2131   -0.1237   -1.6252 H   0  0  0  0  0  0  0  0  0  0  0  0
   -3.5838   -0.3036   -2.3487 H   0  0  0  0  0  0  0  0  0  0  0  0
   -2.6468   -1.9908    2.9628 H   0  0  0  0  0  0  0  0  0  0  0  0
   -1.2789   -2.1137    1.8166 H   0  0  0  0  0  0  0  0  0  0  0  0
   -2.9564   -2.3492    1.2337 H   0  0  0  0  0  0  0  0  0  0  0  0
  1  2  1  0  0  0  0
  2  3  1  0  0  0  0
  3  4  4  0  0  0  0
  4  5  2  0  0  0  0
  4  6  1  0  0  0  0
  6  7  1  0  0  0  0
  7  8  1  0  0  0  0
  7  9  1  0  0  0  0
  9 10  2  0  0  0  0
  9 11  4  0  0  0  0
 11 12  1  0  0  0  0
 12 13  1  0  0  0  0
  7 14  1  0  0  0  0
 14 15  1  0  0  0  0
 15 16  2  0  0  0  0
 15 17  1  0  0  0  0
 17 18  1  0  0  0  0
 15 19  2  0  0  0  0
 19 20  1  0  0  0  0
  1 21  1  0  0  0  0
  1 22  1  0  0  0  0
  1 23  1  0  0  0  0
  2 24  1  0  0  0  0
  2 25  1  0  0  0  0
  6 26  1  0  0  0  0
  6 27  1  0  0  0  0
 12 28  1  0  0  0  0
 12 29  1  0  0  0  0
 13 30  1  0  0  0  0
 13 31  1  0  0  0  0
 13 32  1  0  0  0  0
 18 33  1  0  0  0  0
 18 34  1  0  0  0  0
 18 35  1  0  0  0  0
 20 36  1  0  0  0  0
 20 37  1  0  0  0  0
 20 38  1  0  0  0  0
M  END
