41
 xtb: 6.7.1 (edcfbbe)
C            6.06443392366277        0.07399559186705       -1.14495078618099
C            4.61593556704277        0.01915974724486       -1.55248076255209
O            3.81505140879165        0.10833249380178       -0.32066145078916
P            2.23435790362387        0.39932020918425       -0.36743245710635
S            1.59834185497315        1.92148698769386       -1.39334388137251
O            1.88842648730693        0.56147767822590        1.18470730771489
C            2.30281189306295       -0.43589087331620        2.19167957313988
C            3.33026980904588        0.18460129158831        3.10263941081682
S            1.53641026596997       -1.50730951962001       -1.02982165632410
C           -0.22870997158018       -1.12575408011937       -1.31015958905541
S           -1.13186210654862       -1.11442240796998        0.30073451458793
P           -2.77581652752816        0.19385831429347       -0.05944612690999
S           -2.83847196283773        0.97710279912449       -1.84014275777227
O           -2.70308306881449        1.18918272459362        1.20322038321335
C           -1.55274998661768        2.10244691690828        1.31900921603456
C           -0.98142760037635        1.98010227058375        2.70720099877594
O           -4.07887068146424       -0.60310395959721        0.43940666052593
C           -4.91183832336392       -1.38044036597890       -0.48816186444711
C           -4.25785105207449       -2.67524152940610       -0.90398813368918
H            6.29585801715578        1.02202267158153       -0.65159341523243
H            6.31394055611468       -0.75161032129742       -0.47266313178336
H            6.68596480136471       -0.01077889854287       -2.04153711463188
H            4.36961592043391       -0.92343196189121       -2.05108876990871
H            4.34306638296379        0.85675433263835       -2.20181318856177
H            1.38622972803274       -0.70068770847714        2.72433759767320
H            2.68804193019782       -1.32809721451872        1.68993387455366
H            4.23858352623401        0.44409561967254        2.55169751425178
H            2.93287087800865        1.08311080704562        3.58318901959207
H            3.59164679640925       -0.53703464392488        3.88333884220383
H           -0.61588794232697       -1.91992734603214       -1.95351440081774
H           -0.33311519392159       -0.15445819144484       -1.80292207849161
H           -0.80467212890900        1.85490107872292        0.55759937304818
H           -1.93894235454021        3.10494832658515        1.11609238061175
H           -0.15562416720655        2.69085965008442        2.81483030998086
H           -1.73641796526075        2.21095110810064        3.46437045185363
H           -0.59516464774407        0.97156583605203        2.88342450972340
H           -5.82471930067768       -1.55869114130430        0.08322302505000
H           -5.14802013220273       -0.74716971085451       -1.34866444822506
H           -3.37372170479177       -2.50386590104435       -1.52533879387411
H           -3.97137104653927       -3.27032379927093       -0.03242287587372
H           -4.97972208053035       -3.25018372478526       -1.49324498491714
