 xtb: 6.7.1 (edcfbbe)
          04092513583D

 41 40  0     0  0            999 V2000
    4.9086   -2.7463   -1.6772 C   0  0  0  0  0  0  0  0  0  0  0  0
    4.0311   -1.5107   -1.7023 C   0  0  0  0  0  0  0  0  0  0  0  0
    3.1394   -1.5773   -0.5698 O   0  0  0  0  0  0  0  0  0  0  0  0
    2.3250   -0.3111   -0.0680 P   0  0  0  0  0  0  0  0  0  0  0  0
    3.3823    1.3252    0.1868 S   0  0  0  0  0  0  0  0  0  0  0  0
    1.5934   -0.8831    1.2119 O   0  0  0  0  0  0  0  0  0  0  0  0
    2.1219   -0.7131    2.5444 C   0  0  0  0  0  0  0  0  0  0  0  0
    3.3316   -1.5923    2.7816 C   0  0  0  0  0  0  0  0  0  0  0  0
    0.7278   -0.1861   -1.4503 S   0  0  0  0  0  0  0  0  0  0  0  0
    0.2174    1.5083   -1.0594 C   0  0  0  0  0  0  0  0  0  0  0  0
   -0.6258    1.6461    0.5400 S   0  0  0  0  0  0  0  0  0  0  0  0
   -2.5042    0.8424   -0.0310 P   0  0  0  0  0  0  0  0  0  0  0  0
   -2.9445    1.0141   -1.9381 S   0  0  0  0  0  0  0  0  0  0  0  0
   -3.3635    1.6444    1.0270 O   0  0  0  0  0  0  0  0  0  0  0  0
   -4.6140    1.1775    1.5831 C   0  0  0  0  0  0  0  0  0  0  0  0
   -5.7255    1.1398    0.5538 C   0  0  0  0  0  0  0  0  0  0  0  0
   -2.6105   -0.6430    0.5321 O   0  0  0  0  0  0  0  0  0  0  0  0
   -2.3823   -1.8361   -0.2432 C   0  0  0  0  0  0  0  0  0  0  0  0
   -1.3795   -2.7193    0.4713 C   0  0  0  0  0  0  0  0  0  0  0  0
    5.5038   -2.7670   -0.7688 H   0  0  0  0  0  0  0  0  0  0  0  0
    4.2916   -3.6392   -1.7149 H   0  0  0  0  0  0  0  0  0  0  0  0
    5.5702   -2.7299   -2.5372 H   0  0  0  0  0  0  0  0  0  0  0  0
    3.4268   -1.4698   -2.6126 H   0  0  0  0  0  0  0  0  0  0  0  0
    4.6247   -0.5936   -1.6258 H   0  0  0  0  0  0  0  0  0  0  0  0
    2.3728    0.3429    2.6868 H   0  0  0  0  0  0  0  0  0  0  0  0
    1.2884   -0.9842    3.1935 H   0  0  0  0  0  0  0  0  0  0  0  0
    3.6383   -1.5073    3.8197 H   0  0  0  0  0  0  0  0  0  0  0  0
    3.0945   -2.6288    2.5574 H   0  0  0  0  0  0  0  0  0  0  0  0
    4.1533   -1.2720    2.1424 H   0  0  0  0  0  0  0  0  0  0  0  0
   -0.4566    1.8224   -1.8572 H   0  0  0  0  0  0  0  0  0  0  0  0
    1.0990    2.1475   -1.0060 H   0  0  0  0  0  0  0  0  0  0  0  0
   -4.4516    0.1900    2.0200 H   0  0  0  0  0  0  0  0  0  0  0  0
   -4.8255    1.9020    2.3711 H   0  0  0  0  0  0  0  0  0  0  0  0
   -6.6546    0.8592    1.0407 H   0  0  0  0  0  0  0  0  0  0  0  0
   -5.8448    2.1154    0.0890 H   0  0  0  0  0  0  0  0  0  0  0  0
   -5.4973    0.4135   -0.2252 H   0  0  0  0  0  0  0  0  0  0  0  0
   -3.3521   -2.3327   -0.3260 H   0  0  0  0  0  0  0  0  0  0  0  0
   -2.0377   -1.5598   -1.2446 H   0  0  0  0  0  0  0  0  0  0  0  0
   -0.4141   -2.2240    0.5424 H   0  0  0  0  0  0  0  0  0  0  0  0
   -1.7334   -2.9460    1.4731 H   0  0  0  0  0  0  0  0  0  0  0  0
   -1.2629   -3.6424   -0.0869 H   0  0  0  0  0  0  0  0  0  0  0  0
  1  2  1  0  0  0  0
  2  3  1  0  0  0  0
  3  4  2  0  0  0  0
  4  5  2  0  0  0  0
  4  6  2  0  0  0  0
  6  7  1  0  0  0  0
  7  8  1  0  0  0  0
  4  9  1  0  0  0  0
  9 10  1  0  0  0  0
 10 11  1  0  0  0  0
 11 12  1  0  0  0  0
 12 13  2  0  0  0  0
 12 14  2  0  0  0  0
 14 15  1  0  0  0  0
 15 16  1  0  0  0  0
 12 17  2  0  0  0  0
 17 18  1  0  0  0  0
 18 19  1  0  0  0  0
  1 20  1  0  0  0  0
  1 21  1  0  0  0  0
  1 22  1  0  0  0  0
  2 23  1  0  0  0  0
  2 24  1  0  0  0  0
  7 25  1  0  0  0  0
  7 26  1  0  0  0  0
  8 27  1  0  0  0  0
  8 28  1  0  0  0  0
  8 29  1  0  0  0  0
 10 30  1  0  0  0  0
 10 31  1  0  0  0  0
 15 32  1  0  0  0  0
 15 33  1  0  0  0  0
 16 34  1  0  0  0  0
 16 35  1  0  0  0  0
 16 36  1  0  0  0  0
 18 37  1  0  0  0  0
 18 38  1  0  0  0  0
 19 39  1  0  0  0  0
 19 40  1  0  0  0  0
 19 41  1  0  0  0  0
M  END
