 xtb: 6.7.1 (edcfbbe)
          04032519583D

 10  9  0     0  0            999 V2000
   -0.6088    0.0044   -0.4682 C   0  0  0  0  0  0  0  0  0  0  0  0
    0.6091    0.0217    0.4677 C   0  0  0  0  0  0  0  0  0  0  0  0
    1.8267   -0.0762   -0.2330 O   0  0  0  0  0  0  0  0  0  0  0  0
   -1.8275   -0.0385    0.2360 O   0  0  0  0  0  0  0  0  0  0  0  0
   -0.5814   -0.9012   -1.0788 H   0  0  0  0  0  0  0  0  0  0  0  0
   -0.5809    0.8763   -1.1366 H   0  0  0  0  0  0  0  0  0  0  0  0
    0.5698   -0.8488    1.1267 H   0  0  0  0  0  0  0  0  0  0  0  0
    0.5935    0.9291    1.0876 H   0  0  0  0  0  0  0  0  0  0  0  0
    1.9285    0.6923   -0.8124 H   0  0  0  0  0  0  0  0  0  0  0  0
   -1.9194    0.7625    0.7714 H   0  0  0  0  0  0  0  0  0  0  0  0
  1  2  1  0  0  0  0
  2  3  1  0  0  0  0
  1  4  1  0  0  0  0
  1  5  1  0  0  0  0
  1  6  1  0  0  0  0
  2  7  1  0  0  0  0
  2  8  1  0  0  0  0
  3  9  1  0  0  0  0
  4 10  1  0  0  0  0
M  END
