 xtb: 6.7.1 (edcfbbe)
          04032519403D

 15 15  0     0  0            999 V2000
   -0.7339   -1.1930    0.2326 C   0  0  0  0  0  0  0  0  0  0  0  0
    0.7239   -1.1640   -0.2281 C   0  0  0  0  0  0  0  0  0  0  0  0
    1.3827    0.0014    0.2343 O   0  0  0  0  0  0  0  0  0  0  0  0
    0.7215    1.1655   -0.2281 C   0  0  0  0  0  0  0  0  0  0  0  0
   -0.7363    1.1915    0.2326 C   0  0  0  0  0  0  0  0  0  0  0  0
   -1.3949   -0.0014   -0.2775 N   0  0  0  0  0  0  0  0  0  0  0  0
   -0.7530   -1.2406    1.3358 H   0  0  0  0  0  0  0  0  0  0  0  0
   -1.2290   -2.0759   -0.1723 H   0  0  0  0  0  0  0  0  0  0  0  0
    1.2828   -2.0062    0.1806 H   0  0  0  0  0  0  0  0  0  0  0  0
    0.7570   -1.1907   -1.3259 H   0  0  0  0  0  0  0  0  0  0  0  0
    1.2787    2.0088    0.1806 H   0  0  0  0  0  0  0  0  0  0  0  0
    0.7546    1.1922   -1.3259 H   0  0  0  0  0  0  0  0  0  0  0  0
   -0.7555    1.2390    1.3358 H   0  0  0  0  0  0  0  0  0  0  0  0
   -1.2332    2.0734   -0.1722 H   0  0  0  0  0  0  0  0  0  0  0  0
   -2.3727   -0.0024   -0.0074 H   0  0  0  0  0  0  0  0  0  0  0  0
  1  2  1  0  0  0  0
  2  3  1  0  0  0  0
  3  4  1  0  0  0  0
  4  5  1  0  0  0  0
  1  6  1  0  0  0  0
  5  6  1  0  0  0  0
  1  7  1  0  0  0  0
  1  8  1  0  0  0  0
  2  9  1  0  0  0  0
  2 10  1  0  0  0  0
  4 11  1  0  0  0  0
  4 12  1  0  0  0  0
  5 13  1  0  0  0  0
  5 14  1  0  0  0  0
  6 15  1  0  0  0  0
M  END
