41
 xtb: 6.7.1 (edcfbbe)
C            3.95573582273768        2.26499736421645        1.17339407319103
C            2.48598698512146        1.96837363816442        1.34134302987788
O            1.95904069751555        1.14639551010057        0.23894387346077
P            2.33179164446834       -0.40875271620076        0.09213853850604
S            2.55560974458015       -1.41606836046961        1.74568027536649
O            3.59813191040325       -0.31113501055359       -0.89816191214813
C            4.40211232044386       -1.50170519022068       -1.21983456911306
C            5.77427213774530       -1.34487869181766       -0.61598937207239
S            0.83993247147712       -1.10030058688851       -1.24111767090318
C           -0.39114330743993       -1.78457087828217       -0.06243730126736
S           -1.27460302424550       -0.56313534114761        0.98330500151114
P           -2.89523384117078        0.01459190813631       -0.26642612731727
S           -2.73107477207685       -0.37735651185387       -2.16577319925131
O           -3.10939790710139        1.55836012749162        0.14463699092311
C           -2.53070635070499        2.66511128215109       -0.63017449055705
C           -1.03383730109875        2.76662752508511       -0.46656215065762
O           -4.11651279943798       -0.67889187115681        0.51839253141980
C           -5.46197007232492       -0.76112699798537       -0.07917416924331
C           -6.14626594878922        0.58189400553163       -0.15702136597596
H            4.26461492969823        2.95105102561539        1.96909571014472
H            4.56352032013553        1.35848093452290        1.25313315374327
H            4.15219066046624        2.74311911141209        0.20954283114044
H            1.88222322891901        2.87661957377190        1.28861466680077
H            2.27477177892111        1.45225397140337        2.28284469943244
H            3.89591013053962       -2.39816854226075       -0.84860582758864
H            4.43495324388660       -1.54084380258311       -2.31125631960319
H            5.72045229825629       -1.32133583185926        0.47607257012875
H            6.39511689293910       -2.19552319753321       -0.91523246007264
H            6.25261013136157       -0.42735154143652       -0.97066644002961
H            0.11656467665389       -2.46058846658352        0.63082679895803
H           -1.10227026280960       -2.35164568702254       -0.66781213900847
H           -2.81877972674006        2.53132209083381       -1.67745098877030
H           -3.03965867609999        3.54468560590789       -0.23091837627902
H           -0.52001001295514        1.91473815405043       -0.91992571455744
H           -0.69305000684089        3.67785657841883       -0.96934052452000
H           -0.75620035655312        2.82952744554856        0.58957230960187
H           -5.36772024053846       -1.23196354388396       -1.06258745672054
H           -5.98965448179639       -1.44128690040167        0.59187199098497
H           -5.66563085814604        1.24444733159439       -0.88243012315083
H           -7.18101192371393        0.42118034465061       -0.47744460474154
H           -6.16137397408248        1.07239021721108        0.82050670943921
