38
 xtb: 6.7.1 (edcfbbe)
C            4.38307013485845       -0.20303313501753       -2.55853364328777
C            3.95915641918270       -1.65244340747777       -2.58924182284329
O            2.65810521331824       -1.83539016468171       -1.93570015515153
C            2.65322746455591       -1.92024317500085       -0.59911888026039
O            3.65139064955122       -1.90294894810645        0.09791015022941
C            1.24756205878875       -2.07419643542750       -0.06080100041855
C            0.39040203543594       -0.81995787852907       -0.33739404848703
H            0.36502470688118       -0.61650687039373       -1.40986300933268
C            1.04336453464380        0.37878683716620        0.32999872693781
O            1.98579118203881        0.94219312565355       -0.20091500809143
O            0.55506076911644        0.67931304184413        1.52523616593295
C            1.19200941472190        1.80655172662786        2.22060790186722
C            0.46980414635325        1.98441853916044        3.52957065272106
S           -1.32861236148478       -1.22418246454166        0.21168146533468
P           -2.32873496172993        0.62312736511485       -0.10363326180468
S           -1.52185618976774        1.79936792633942       -1.41948366931315
O           -3.83597721578117        0.10900832657549       -0.35493999302852
C           -4.20036247026977       -0.48773850533793       -1.63177631982279
O           -2.50401495845388        1.35497274050832        1.31250318998904
C           -2.94010325125933        0.62364621860991        2.49795147528057
H            5.30973681073083       -0.09804912469076       -3.13168442481753
H            3.62198186951209        0.43421459932723       -3.01747579335850
H            4.57025221175217        0.14125302886511       -1.53841466162881
H            4.68600610672900       -2.30855409458215       -2.10449122384665
H            3.78415549154529       -1.99760093055246       -3.60936269732462
H            1.31243456158913       -2.26627518134689        1.01181939194262
H            0.78596596665394       -2.93473675182379       -0.55620420062539
H            2.24860617099699        1.56070996344076        2.35814479914740
H            1.10717473432711        2.68657593933861        1.57663638274249
H           -0.58063131013560        2.24218958929935        3.36963192031518
H            0.52877427868660        1.07779715657648        4.13834239936369
H            0.94305073362711        2.80080783667772        4.08295597862715
H           -3.55924683948955       -1.34567093167276       -1.85234305928868
H           -4.12439578530099        0.26003255053347       -2.42497897019569
H           -5.23383678706260       -0.81406088615438       -1.51735611267751
H           -3.17658896088586        1.38686099805504        3.23909207251584
H           -2.12784279789382       -0.01272991183481        2.85723275496018
H           -3.83017262914361        0.02855683552599        2.27989126784301
