 xtb: 6.7.1 (edcfbbe)
          04032520153D

  9  8  0     0  0            999 V2000
    0.9639    0.8245    0.0990 C   0  0  0  0  0  0  0  0  0  0  0  0
   -0.3352    0.0388    0.0141 C   0  0  0  0  0  0  0  0  0  0  0  0
   -1.4066    0.8439    0.1571 F   0  0  0  0  0  0  0  0  0  0  0  0
   -0.4440   -0.8994    0.9657 F   0  0  0  0  0  0  0  0  0  0  0  0
   -0.4939   -0.5884   -1.1603 F   0  0  0  0  0  0  0  0  0  0  0  0
    2.0112   -0.0892   -0.0639 O   0  0  0  0  0  0  0  0  0  0  0  0
    0.9357    1.5779   -0.6982 H   0  0  0  0  0  0  0  0  0  0  0  0
    0.9797    1.3118    1.0819 H   0  0  0  0  0  0  0  0  0  0  0  0
    2.8608    0.3749   -0.0102 H   0  0  0  0  0  0  0  0  0  0  0  0
  1  2  1  0  0  0  0
  2  3  1  0  0  0  0
  2  4  1  0  0  0  0
  2  5  1  0  0  0  0
  1  6  1  0  0  0  0
  1  7  1  0  0  0  0
  1  8  1  0  0  0  0
  6  9  1  0  0  0  0
M  END
