 xtb: 6.7.1 (edcfbbe)
          04092505213D

 41 40  0     0  0            999 V2000
    5.4884   -0.6190   -0.2517 C   0  0  0  0  0  0  0  0  0  0  0  0
    4.2856   -1.3826   -0.7639 C   0  0  0  0  0  0  0  0  0  0  0  0
    3.2190   -0.5021   -1.1881 O   0  0  0  0  0  0  0  0  0  0  0  0
    2.4200    0.4546   -0.2081 P   0  0  0  0  0  0  0  0  0  0  0  0
    3.2162    2.1485    0.3689 S   0  0  0  0  0  0  0  0  0  0  0  0
    2.0267   -0.5534    0.9610 O   0  0  0  0  0  0  0  0  0  0  0  0
    1.6876   -0.1262    2.2936 C   0  0  0  0  0  0  0  0  0  0  0  0
    2.8752   -0.3123    3.2172 C   0  0  0  0  0  0  0  0  0  0  0  0
    0.6855    0.7320   -1.3867 S   0  0  0  0  0  0  0  0  0  0  0  0
    0.0570   -0.9789   -1.3529 C   0  0  0  0  0  0  0  0  0  0  0  0
   -0.9311   -1.3350    0.1158 S   0  0  0  0  0  0  0  0  0  0  0  0
   -2.5564   -0.0466   -0.3861 P   0  0  0  0  0  0  0  0  0  0  0  0
   -3.0374    0.0288   -2.2783 S   0  0  0  0  0  0  0  0  0  0  0  0
   -2.1431    1.3708    0.1709 O   0  0  0  0  0  0  0  0  0  0  0  0
   -1.7765    1.6228    1.5479 C   0  0  0  0  0  0  0  0  0  0  0  0
   -2.9554    2.1643    2.3298 C   0  0  0  0  0  0  0  0  0  0  0  0
   -3.7085   -0.4922    0.6139 O   0  0  0  0  0  0  0  0  0  0  0  0
   -4.6496   -1.5356    0.2972 C   0  0  0  0  0  0  0  0  0  0  0  0
   -3.9868   -2.8906    0.1608 C   0  0  0  0  0  0  0  0  0  0  0  0
    5.8399    0.0822   -1.0048 H   0  0  0  0  0  0  0  0  0  0  0  0
    5.2244   -0.0566    0.6423 H   0  0  0  0  0  0  0  0  0  0  0  0
    6.2838   -1.3175   -0.0115 H   0  0  0  0  0  0  0  0  0  0  0  0
    3.8936   -2.0549    0.0024 H   0  0  0  0  0  0  0  0  0  0  0  0
    4.5245   -1.9448   -1.6683 H   0  0  0  0  0  0  0  0  0  0  0  0
    1.3822    0.9235    2.2714 H   0  0  0  0  0  0  0  0  0  0  0  0
    0.8463   -0.7576    2.5855 H   0  0  0  0  0  0  0  0  0  0  0  0
    3.2213   -1.3412    3.1837 H   0  0  0  0  0  0  0  0  0  0  0  0
    3.6853    0.3486    2.9159 H   0  0  0  0  0  0  0  0  0  0  0  0
    2.5797   -0.0655    4.2316 H   0  0  0  0  0  0  0  0  0  0  0  0
    0.8891   -1.6768   -1.3683 H   0  0  0  0  0  0  0  0  0  0  0  0
   -0.5720   -1.0847   -2.2370 H   0  0  0  0  0  0  0  0  0  0  0  0
   -1.4036    0.6950    1.9914 H   0  0  0  0  0  0  0  0  0  0  0  0
   -0.9681    2.3556    1.4852 H   0  0  0  0  0  0  0  0  0  0  0  0
   -3.7448    1.4196    2.3827 H   0  0  0  0  0  0  0  0  0  0  0  0
   -2.6286    2.4158    3.3340 H   0  0  0  0  0  0  0  0  0  0  0  0
   -3.3444    3.0556    1.8453 H   0  0  0  0  0  0  0  0  0  0  0  0
   -5.3516   -1.5127    1.1319 H   0  0  0  0  0  0  0  0  0  0  0  0
   -5.1634   -1.2638   -0.6296 H   0  0  0  0  0  0  0  0  0  0  0  0
   -3.3778   -3.1057    1.0352 H   0  0  0  0  0  0  0  0  0  0  0  0
   -4.7524   -3.6529    0.0572 H   0  0  0  0  0  0  0  0  0  0  0  0
   -3.3528   -2.9073   -0.7243 H   0  0  0  0  0  0  0  0  0  0  0  0
  1  2  1  0  0  0  0
  2  3  1  0  0  0  0
  3  4  2  0  0  0  0
  4  5  2  0  0  0  0
  4  6  2  0  0  0  0
  6  7  1  0  0  0  0
  7  8  1  0  0  0  0
  4  9  1  0  0  0  0
  9 10  1  0  0  0  0
 10 11  1  0  0  0  0
 11 12  1  0  0  0  0
 12 13  2  0  0  0  0
 12 14  2  0  0  0  0
 14 15  1  0  0  0  0
 15 16  1  0  0  0  0
 12 17  2  0  0  0  0
 17 18  1  0  0  0  0
 18 19  1  0  0  0  0
  1 20  1  0  0  0  0
  1 21  1  0  0  0  0
  1 22  1  0  0  0  0
  2 23  1  0  0  0  0
  2 24  1  0  0  0  0
  7 25  1  0  0  0  0
  7 26  1  0  0  0  0
  8 27  1  0  0  0  0
  8 28  1  0  0  0  0
  8 29  1  0  0  0  0
 10 30  1  0  0  0  0
 10 31  1  0  0  0  0
 15 32  1  0  0  0  0
 15 33  1  0  0  0  0
 16 34  1  0  0  0  0
 16 35  1  0  0  0  0
 16 36  1  0  0  0  0
 18 37  1  0  0  0  0
 18 38  1  0  0  0  0
 19 39  1  0  0  0  0
 19 40  1  0  0  0  0
 19 41  1  0  0  0  0
M  END
