  17
 
 C         -2.8041473371       -0.6205783119       -0.0013846525
 O         -1.7640854615        0.3353810840       -0.0001701795
 C         -0.4626165996       -0.1134533289       -0.0002581013
 C         -0.0680496988       -1.4397001564       -0.0010445154
 C          1.2820098362       -1.7617708961       -0.0009436073
 C          2.2381235959       -0.7658927408       -0.0001096550
 C          1.8525802199        0.5651658621        0.0006119109
 C          0.5098101923        0.9013082049        0.0005410916
 O          0.1439047146        2.2129344838        0.0012525758
 H         -3.7248158195       -0.0415985718       -0.0004736892
 H         -2.7627378572       -1.2484734152        0.8921848727
 H         -2.7628479227       -1.2459504185       -0.8967391301
 H         -0.8012203263       -2.2297446343       -0.0017359362
 H          1.5764960317       -2.7994135732       -0.0015486035
 H          3.2868885736       -1.0167977343       -0.0000438355
 H          2.5788174070        1.3619197308        0.0012202757
 H         -0.8254315207        2.2686530725        0.0010174394
          17
        -27.19442697
 C         -2.7693488924       -0.7773406354       -0.0010556864
 O         -1.7938360982        0.2446835302        0.0010218723
 C         -0.4658194847       -0.1191099020        0.0004671648
 C          0.0140655437       -1.4168449724        0.0004395960
 C          1.3821425115       -1.6509962816        0.0000200559
 C          2.2717332630       -0.5952544322       -0.0002332642
 C          1.8005465304        0.7079314347       -0.0003085727
 C          0.4388962413        0.9565239538       -0.0000301868
 O         -0.0108657699        2.2419799015       -0.0001484551
 H         -2.6858504928       -1.3992042776       -0.8960952774
 H         -3.7259536411       -0.2598816525       -0.0016308883
 H         -2.6880876694       -1.4009264599        0.8927967203
 H         -0.6663572327       -2.2527603929        0.0006397751
 H          1.7429119872       -2.6674590976       -0.0000705615
 H          3.3345618481       -0.7775219356       -0.0003893640
 H          2.4739575361        1.5499249143       -0.0006724486
 H         -0.9817651876        2.2349279312       -0.0000901325
