  31
 
 C         -3.7323010627       -0.6624026792       -1.7550603395
 C         -3.2802332110       -0.7705535912       -0.2962908384
 H         -3.5610971895       -1.7509832218        0.0972393484
 C         -1.7793974978       -0.6075341414       -0.1872865640
 C         -0.9663146654       -1.6818749953        0.1529025175
 C          0.4051247871       -1.5325541075        0.2280632794
 C          1.0195208934       -0.3062325751       -0.0199813550
 C          0.1806876550        0.7506095848       -0.3618346450
 C         -1.1891049678        0.6214120870       -0.4534922347
 F          0.7174925897        1.9729571289       -0.6491856172
 C          2.4798966433       -0.1584365959        0.0822775890
 C          3.0456552625        0.9273977265        0.7448778987
 C          4.4197669756        1.0422329440        0.8515600330
 C          5.2454064366        0.0795640814        0.2955113990
 C          4.6905155865       -1.0022190656       -0.3688247015
 C          3.3175424619       -1.1237503693       -0.4724109697
 C         -3.9204177406        0.3244146537        0.5454684786
 O         -4.1937250844        1.4206450437        0.1170822475
 O         -4.1372720341        0.0384503819        1.8254535982
 H         -3.5553938196        0.3430168708       -2.1271097459
 H         -3.1810996575       -1.3699400806       -2.3674130178
 H         -4.7956371771       -0.8725937901       -1.8339030330
 H         -1.4044526745       -2.6462460480        0.3554605248
 H          1.0221425800       -2.3724123125        0.5050899466
 H         -1.7851751219        1.4803471865       -0.7211978891
 H          2.4080592640        1.6778522844        1.1885070765
 H          4.8459200115        1.8867894255        1.3719395786
 H          6.3174065444        0.1731245005        0.3787737475
 H          5.3300708138       -1.7527266498       -0.8081794017
 H          2.8871987724       -1.9593707203       -1.0035511396
 H         -3.9000448452       -0.8706378294        2.0854881625
          31
        -51.62649013
 C         -3.7167471214       -0.9851582357       -1.6206401403
 C         -3.2769234746       -0.8376672947       -0.1612982547
 H         -3.5541802055       -1.7385553137        0.3923340522
 C         -1.7774038571       -0.6487738091       -0.0746345887
 C         -0.9595072519       -1.6497026731        0.4347865217
 C          0.4116724761       -1.4859113886        0.4799120424
 C          1.0212424496       -0.3153813305        0.0320255175
 C          0.1769783338        0.6699186168       -0.4715009332
 C         -1.1925189611        0.5230827720       -0.5369145244
 F          0.7078053356        1.8318282281       -0.9540760081
 C          2.4823161781       -0.1517880735        0.0914445189
 C          3.0545957122        1.0291112446        0.5565192540
 C          4.4298463791        1.1624346459        0.6172940017
 C          5.2501795291        0.1228657025        0.2122151368
 C          4.6887230979       -1.0551341773       -0.2528361283
 C          3.3146922627       -1.1944035310       -0.3102220075
 C         -3.9319274295        0.3803471542        0.4734770717
 O         -4.1933419684        1.3899891188       -0.1369051126
 O         -4.1780331561        0.3112062287        1.7778663909
 H         -3.5390496996       -0.0582694172       -2.1590466336
 H         -3.1579773191       -1.7853687692       -2.0969715785
 H         -4.7787114937       -1.2105555785       -1.6710365382
 H         -1.3934592487       -2.5706770443        0.7915183869
 H          1.0324702051       -2.2687266922        0.8860719577
 H         -1.7920265734        1.3254099935       -0.9386881657
 H          2.4215023928        1.8413310246        0.8820517647
 H          4.8611496156        2.0822387868        0.9826464794
 H          6.3230591253        0.2312597637        0.2578973035
 H          5.3240079230       -1.8669546362       -0.5732028700
 H          2.8791624670       -2.1069620223       -0.6883381480
 H         -3.9537941978       -0.5428752796        2.1903706966
          31
        -51.63541267
 C         -3.7456096330        0.5310657996       -1.8055618029
 C         -3.2836745972       -0.4315643810       -0.7103452952
 H         -3.5694556223       -1.4568731408       -0.9553337419
 C         -1.7838483119       -0.3709780197       -0.5236258310
 C         -0.9820494763       -1.4648355114       -0.8227936480
 C          0.3895351091       -1.3974043535       -0.6702990442
 C          1.0167579670       -0.2397010866       -0.2127065825
 C          0.1872614268        0.8362235464        0.0885007851
 C         -1.1833875814        0.7907909276       -0.0556217130
 F          0.7291045680        1.9902588687        0.5801487315
 C          2.4786134816       -0.1804151619       -0.0558300157
 C          3.2040713526        0.9215786148       -0.5006183197
 C          4.5791799695        0.9573766475       -0.3573843834
 C          5.2469033394       -0.1022363491        0.2334270066
 C          4.5325659324       -1.2021858525        0.6795409795
 C          3.1585956994       -1.2439662499        0.5338202751
 C         -3.9112030703       -0.0827785551        0.6249110417
 O         -4.1340113720        1.0413419911        1.0161768281
 O         -4.1608514338       -1.1596531130        1.3491990338
 H         -4.8080278612        0.4024760928       -1.9942777193
 H         -3.5735183507        1.5587245627       -1.4972401752
 H         -3.1952189762        0.3378420430       -2.7214947573
 H         -1.4332594081       -2.3758006669       -1.1831045989
 H          0.9998793511       -2.2496859315       -0.9240756790
 H         -1.7717568792        1.6542288960        0.2141302349
 H          2.6913682152        1.7478887659       -0.9702599002
 H          5.1302697536        1.8164585697       -0.7092407522
 H          6.3197864444       -0.0701100731        0.3466796026
 H          5.0479816246       -2.0291813740        1.1440610092
 H          2.6018884531       -2.0948692693        0.8965557413
 H         -4.5316843085       -0.9527742158        2.2296269270
