 xtb: 6.7.1 (edcfbbe)
          04092505213D

 41 40  0     0  0            999 V2000
    5.7588    0.6470   -0.8229 C   0  0  0  0  0  0  0  0  0  0  0  0
    4.3401    0.2279   -1.1504 C   0  0  0  0  0  0  0  0  0  0  0  0
    3.4500    0.8788   -0.2083 O   0  0  0  0  0  0  0  0  0  0  0  0
    2.1261    0.1995    0.3363 P   0  0  0  0  0  0  0  0  0  0  0  0
    1.3394    1.3261    1.7214 S   0  0  0  0  0  0  0  0  0  0  0  0
    2.4869   -1.2939    0.7755 O   0  0  0  0  0  0  0  0  0  0  0  0
    2.7169   -1.6382    2.1571 C   0  0  0  0  0  0  0  0  0  0  0  0
    4.0739   -1.1519    2.6219 C   0  0  0  0  0  0  0  0  0  0  0  0
    1.0654   -0.2235   -1.4543 S   0  0  0  0  0  0  0  0  0  0  0  0
    0.0166   -1.5873   -0.8636 C   0  0  0  0  0  0  0  0  0  0  0  0
   -1.0696   -1.1303    0.5024 S   0  0  0  0  0  0  0  0  0  0  0  0
   -2.4091    0.0847   -0.6379 P   0  0  0  0  0  0  0  0  0  0  0  0
   -2.6184   -0.4361   -2.5102 S   0  0  0  0  0  0  0  0  0  0  0  0
   -1.8882    1.5713   -0.5671 O   0  0  0  0  0  0  0  0  0  0  0  0
   -1.8191    2.3545    0.6474 C   0  0  0  0  0  0  0  0  0  0  0  0
   -3.0289    3.2570    0.7653 C   0  0  0  0  0  0  0  0  0  0  0  0
   -3.6976    0.1396    0.2879 O   0  0  0  0  0  0  0  0  0  0  0  0
   -4.3532   -1.0050    0.8680 C   0  0  0  0  0  0  0  0  0  0  0  0
   -4.7254   -2.0529   -0.1593 C   0  0  0  0  0  0  0  0  0  0  0  0
    6.4358    0.2054   -1.5471 H   0  0  0  0  0  0  0  0  0  0  0  0
    5.8435    1.7291   -0.8641 H   0  0  0  0  0  0  0  0  0  0  0  0
    6.0316    0.3144    0.1749 H   0  0  0  0  0  0  0  0  0  0  0  0
    4.2125   -0.8545   -1.0704 H   0  0  0  0  0  0  0  0  0  0  0  0
    4.0471    0.5533   -2.1511 H   0  0  0  0  0  0  0  0  0  0  0  0
    1.9193   -1.1985    2.7637 H   0  0  0  0  0  0  0  0  0  0  0  0
    2.6436   -2.7262    2.1776 H   0  0  0  0  0  0  0  0  0  0  0  0
    4.8612   -1.5738    2.0023 H   0  0  0  0  0  0  0  0  0  0  0  0
    4.1134   -0.0645    2.5592 H   0  0  0  0  0  0  0  0  0  0  0  0
    4.2299   -1.4507    3.6536 H   0  0  0  0  0  0  0  0  0  0  0  0
    0.6408   -2.4063   -0.5178 H   0  0  0  0  0  0  0  0  0  0  0  0
   -0.5897   -1.8768   -1.7240 H   0  0  0  0  0  0  0  0  0  0  0  0
   -1.7318    1.6842    1.5069 H   0  0  0  0  0  0  0  0  0  0  0  0
   -0.8960    2.9309    0.5564 H   0  0  0  0  0  0  0  0  0  0  0  0
   -3.1025    3.8932   -0.1125 H   0  0  0  0  0  0  0  0  0  0  0  0
   -3.9354    2.6629    0.8454 H   0  0  0  0  0  0  0  0  0  0  0  0
   -2.9218    3.8754    1.6508 H   0  0  0  0  0  0  0  0  0  0  0  0
   -3.6914   -1.4263    1.6298 H   0  0  0  0  0  0  0  0  0  0  0  0
   -5.2391   -0.5787    1.3419 H   0  0  0  0  0  0  0  0  0  0  0  0
   -5.3229   -1.6108   -0.9530 H   0  0  0  0  0  0  0  0  0  0  0  0
   -3.8278   -2.4798   -0.6042 H   0  0  0  0  0  0  0  0  0  0  0  0
   -5.2930   -2.8426    0.3221 H   0  0  0  0  0  0  0  0  0  0  0  0
  1  2  1  0  0  0  0
  2  3  1  0  0  0  0
  3  4  2  0  0  0  0
  4  5  2  0  0  0  0
  4  6  1  0  0  0  0
  6  7  1  0  0  0  0
  7  8  1  0  0  0  0
  4  9  1  0  0  0  0
  9 10  1  0  0  0  0
 10 11  1  0  0  0  0
 11 12  1  0  0  0  0
 12 13  2  0  0  0  0
 12 14  2  0  0  0  0
 14 15  1  0  0  0  0
 15 16  1  0  0  0  0
 12 17  2  0  0  0  0
 17 18  1  0  0  0  0
 18 19  1  0  0  0  0
  1 20  1  0  0  0  0
  1 21  1  0  0  0  0
  1 22  1  0  0  0  0
  2 23  1  0  0  0  0
  2 24  1  0  0  0  0
  7 25  1  0  0  0  0
  7 26  1  0  0  0  0
  8 27  1  0  0  0  0
  8 28  1  0  0  0  0
  8 29  1  0  0  0  0
 10 30  1  0  0  0  0
 10 31  1  0  0  0  0
 15 32  1  0  0  0  0
 15 33  1  0  0  0  0
 16 34  1  0  0  0  0
 16 35  1  0  0  0  0
 16 36  1  0  0  0  0
 18 37  1  0  0  0  0
 18 38  1  0  0  0  0
 19 39  1  0  0  0  0
 19 40  1  0  0  0  0
 19 41  1  0  0  0  0
M  END
