17
 xtb: 6.7.1 (edcfbbe)
C           -1.82643500548673       -0.04546014342378       -0.35663607761261
C           -1.05524037140198        1.29646637594354       -0.25591003343735
C            0.28392994948509        1.17511727256755        0.50050327651252
C            1.07482858378033       -0.00961598207190        0.03959007772991
O            2.26760232968146        0.05572910964767       -0.25189794801419
C            0.31364830974820       -1.30965008285276       -0.04451900679948
C           -1.13729165100899       -1.17553651381230        0.41214408362321
H           -1.90129192148951       -0.34476585152310       -1.40819328230270
H           -2.85058750937768        0.07926453282486        0.00781596719338
H           -0.84939655691126        1.68464899392585       -1.25792602770129
H           -1.65972012836417        2.05142883153789        0.25429479420661
H            0.88245247664070        2.08500344386053        0.41419489825159
H            0.07725647882139        1.00573210836104        1.56724333933743
H            0.35964289479034       -1.63645999506584       -1.09297590169941
H            0.86731245121441       -2.05919193306238        0.53397275142687
H           -1.66614920389433       -2.11975991512381        0.24908735162911
H           -1.16950890789446       -0.97710171074796        1.48991211637477
