 xtb: 6.7.1 (edcfbbe)
          04092505203D

 41 40  0     0  0            999 V2000
    4.6520    1.5947   -0.2188 C   0  0  0  0  0  0  0  0  0  0  0  0
    3.9086    1.0209   -1.4072 C   0  0  0  0  0  0  0  0  0  0  0  0
    3.1182   -0.1350   -1.0714 O   0  0  0  0  0  0  0  0  0  0  0  0
    2.0656   -0.2273    0.1124 P   0  0  0  0  0  0  0  0  0  0  0  0
    2.7587   -0.5160    1.9278 S   0  0  0  0  0  0  0  0  0  0  0  0
    1.1244   -1.3879   -0.4143 O   0  0  0  0  0  0  0  0  0  0  0  0
    1.2490   -2.7498    0.0313 C   0  0  0  0  0  0  0  0  0  0  0  0
    2.5192   -3.3848   -0.4926 C   0  0  0  0  0  0  0  0  0  0  0  0
    0.8540    1.4780   -0.1634 S   0  0  0  0  0  0  0  0  0  0  0  0
    0.0023    1.3813    1.4312 C   0  0  0  0  0  0  0  0  0  0  0  0
   -1.0676   -0.0784    1.5966 S   0  0  0  0  0  0  0  0  0  0  0  0
   -2.2570    0.1604   -0.1445 P   0  0  0  0  0  0  0  0  0  0  0  0
   -1.6567   -0.4949   -1.8967 S   0  0  0  0  0  0  0  0  0  0  0  0
   -2.5636    1.7060   -0.0336 O   0  0  0  0  0  0  0  0  0  0  0  0
   -2.8110    2.5683   -1.1679 C   0  0  0  0  0  0  0  0  0  0  0  0
   -1.9376    3.8012   -1.0495 C   0  0  0  0  0  0  0  0  0  0  0  0
   -3.6522   -0.4705    0.2961 O   0  0  0  0  0  0  0  0  0  0  0  0
   -3.9674   -1.8547    0.0822 C   0  0  0  0  0  0  0  0  0  0  0  0
   -3.1404   -2.7585    0.9742 C   0  0  0  0  0  0  0  0  0  0  0  0
    3.9464    1.9789    0.5169 H   0  0  0  0  0  0  0  0  0  0  0  0
    5.2604    0.8279    0.2551 H   0  0  0  0  0  0  0  0  0  0  0  0
    5.2914    2.4055   -0.5528 H   0  0  0  0  0  0  0  0  0  0  0  0
    4.5968    0.6470   -2.1675 H   0  0  0  0  0  0  0  0  0  0  0  0
    3.2432    1.7692   -1.8475 H   0  0  0  0  0  0  0  0  0  0  0  0
    1.2268   -2.7625    1.1266 H   0  0  0  0  0  0  0  0  0  0  0  0
    0.3572   -3.2385   -0.3653 H   0  0  0  0  0  0  0  0  0  0  0  0
    2.5577   -4.4254   -0.1864 H   0  0  0  0  0  0  0  0  0  0  0  0
    2.5491   -3.3206   -1.5771 H   0  0  0  0  0  0  0  0  0  0  0  0
    3.3831   -2.8595   -0.0856 H   0  0  0  0  0  0  0  0  0  0  0  0
   -0.5928    2.2852    1.5305 H   0  0  0  0  0  0  0  0  0  0  0  0
    0.7397    1.2966    2.2309 H   0  0  0  0  0  0  0  0  0  0  0  0
   -2.5943    2.0143   -2.0876 H   0  0  0  0  0  0  0  0  0  0  0  0
   -3.8720    2.8231   -1.1379 H   0  0  0  0  0  0  0  0  0  0  0  0
   -2.1477    4.4641   -1.8824 H   0  0  0  0  0  0  0  0  0  0  0  0
   -2.1462    4.3197   -0.1180 H   0  0  0  0  0  0  0  0  0  0  0  0
   -0.8862    3.5206   -1.0729 H   0  0  0  0  0  0  0  0  0  0  0  0
   -5.0319   -1.9244    0.3090 H   0  0  0  0  0  0  0  0  0  0  0  0
   -3.7940   -2.0896   -0.9736 H   0  0  0  0  0  0  0  0  0  0  0  0
   -3.2712   -2.4839    2.0178 H   0  0  0  0  0  0  0  0  0  0  0  0
   -3.4427   -3.7906    0.8291 H   0  0  0  0  0  0  0  0  0  0  0  0
   -2.0845   -2.6576    0.7199 H   0  0  0  0  0  0  0  0  0  0  0  0
  1  2  1  0  0  0  0
  2  3  1  0  0  0  0
  3  4  2  0  0  0  0
  4  5  2  0  0  0  0
  4  6  2  0  0  0  0
  6  7  1  0  0  0  0
  7  8  1  0  0  0  0
  4  9  1  0  0  0  0
  9 10  1  0  0  0  0
 10 11  1  0  0  0  0
 11 12  1  0  0  0  0
 12 13  2  0  0  0  0
 12 14  2  0  0  0  0
 14 15  1  0  0  0  0
 15 16  1  0  0  0  0
 12 17  2  0  0  0  0
 17 18  1  0  0  0  0
 18 19  1  0  0  0  0
  1 20  1  0  0  0  0
  1 21  1  0  0  0  0
  1 22  1  0  0  0  0
  2 23  1  0  0  0  0
  2 24  1  0  0  0  0
  7 25  1  0  0  0  0
  7 26  1  0  0  0  0
  8 27  1  0  0  0  0
  8 28  1  0  0  0  0
  8 29  1  0  0  0  0
 10 30  1  0  0  0  0
 10 31  1  0  0  0  0
 15 32  1  0  0  0  0
 15 33  1  0  0  0  0
 16 34  1  0  0  0  0
 16 35  1  0  0  0  0
 16 36  1  0  0  0  0
 18 37  1  0  0  0  0
 18 38  1  0  0  0  0
 19 39  1  0  0  0  0
 19 40  1  0  0  0  0
 19 41  1  0  0  0  0
M  END
