38
 xtb: 6.7.1 (edcfbbe)
C            2.68446158781236       -2.83321873821355        0.42292472317039
C            3.51539281982153       -1.83748733378079       -0.35165620894793
O            2.65159409188423       -0.81810812525458       -0.95553430643793
C            2.04419192030705       -1.12352379375983       -2.10929420375642
O            2.23800123220692       -2.14581398265272       -2.74205556292003
C            1.10617554747938       -0.02408634025416       -2.54583564744801
C            0.24502243120841        0.56340035804556       -1.41853345734012
H           -0.44401133795999        1.28669360415147       -1.86757394746155
C            1.08708504342913        1.35672548582440       -0.42746026013609
O            1.78301452153158        2.27887854227720       -0.81707155020530
O            0.96315394562337        0.98782038215317        0.83876686253834
C            1.75825560655103        1.74635944834055        1.81306239707175
C            1.45320365901652        1.17989606157515        3.17458033824522
S           -0.77872968679957       -0.81415831023885       -0.72708562981881
P           -2.19265277699431        0.22247466709198        0.47086598930749
S           -2.53884537965921        2.06428987101592       -0.03512891015315
O           -3.42172798778083       -0.82183637437906        0.43936599439821
C           -4.25061691137007       -0.93699110660929       -0.75110025928646
O           -1.75380424832802        0.10410418969854        2.00835144587132
C           -1.30598125896783       -1.16218656826724        2.57739007935196
H            3.35196049259092       -3.54703092709164        0.91592965440250
H            2.09231498180689       -2.32746366820047        1.19173931993963
H            2.01212461840962       -3.38930302571508       -0.23616784280536
H            4.10601506181902       -2.30790954329918       -1.14107527627982
H            4.17489899537485       -1.26532930904788        0.30270769281458
H            0.47003104482688       -0.41089902231327       -3.34317035020757
H            1.71341988374132        0.78789227765340       -2.96359439155000
H            2.81192954529597        1.63131713756055        1.54211329442309
H            1.47836785051719        2.80029192556000        1.73035072881206
H            2.06136161128639        1.70579747256195        3.91650058494310
H            0.40011101307901        1.31891253501833        3.43370054958906
H            1.69839192684394        0.11487214899330        3.22279830700972
H           -4.78955288173786       -0.00145569036302       -0.91975907768551
H           -4.95148100963634       -1.74494111184852       -0.54223158935226
H           -3.63884830882509       -1.18777886719412       -1.62204390726179
H           -0.36176320511728       -1.46470804593618        2.11696059456544
H           -2.06704501674445       -1.93382189334034        2.43862120027164
H           -1.16010631356663       -0.96754672441689        3.63966982730616
