 xtb: 6.7.1 (edcfbbe)
          04092505203D

 41 40  0     0  0            999 V2000
    4.1286    2.3930   -0.6240 C   0  0  0  0  0  0  0  0  0  0  0  0
    4.5022    0.9309   -0.4887 C   0  0  0  0  0  0  0  0  0  0  0  0
    3.3806    0.0605   -0.7238 O   0  0  0  0  0  0  0  0  0  0  0  0
    2.1461   -0.0219    0.2721 P   0  0  0  0  0  0  0  0  0  0  0  0
    2.6062    0.0692    2.1789 S   0  0  0  0  0  0  0  0  0  0  0  0
    1.4214   -1.3451   -0.2101 O   0  0  0  0  0  0  0  0  0  0  0  0
    1.6823   -2.6356    0.3704 C   0  0  0  0  0  0  0  0  0  0  0  0
    3.0857   -3.1165    0.0695 C   0  0  0  0  0  0  0  0  0  0  0  0
    0.7876    1.4019   -0.4658 S   0  0  0  0  0  0  0  0  0  0  0  0
   -0.2758    1.4662    1.0060 C   0  0  0  0  0  0  0  0  0  0  0  0
   -1.0875   -0.1085    1.3933 S   0  0  0  0  0  0  0  0  0  0  0  0
   -2.1622   -0.4247   -0.4152 P   0  0  0  0  0  0  0  0  0  0  0  0
   -1.3026   -1.1817   -1.9993 S   0  0  0  0  0  0  0  0  0  0  0  0
   -2.8491    0.9969   -0.6441 O   0  0  0  0  0  0  0  0  0  0  0  0
   -2.8677    1.7157   -1.8935 C   0  0  0  0  0  0  0  0  0  0  0  0
   -2.1741    3.0554   -1.7464 C   0  0  0  0  0  0  0  0  0  0  0  0
   -3.2947   -1.4246    0.0561 O   0  0  0  0  0  0  0  0  0  0  0  0
   -4.0298   -1.4004    1.3025 C   0  0  0  0  0  0  0  0  0  0  0  0
   -4.8104   -0.1180    1.4956 C   0  0  0  0  0  0  0  0  0  0  0  0
    3.6376    2.5705   -1.5777 H   0  0  0  0  0  0  0  0  0  0  0  0
    3.4510    2.6804    0.1790 H   0  0  0  0  0  0  0  0  0  0  0  0
    5.0264    2.9996   -0.5613 H   0  0  0  0  0  0  0  0  0  0  0  0
    4.8938    0.7253    0.5129 H   0  0  0  0  0  0  0  0  0  0  0  0
    5.2300    0.6278   -1.2426 H   0  0  0  0  0  0  0  0  0  0  0  0
    1.5151   -2.5670    1.4511 H   0  0  0  0  0  0  0  0  0  0  0  0
    0.9248   -3.2793   -0.0809 H   0  0  0  0  0  0  0  0  0  0  0  0
    3.2049   -4.1309    0.4372 H   0  0  0  0  0  0  0  0  0  0  0  0
    3.2655   -3.0941   -1.0024 H   0  0  0  0  0  0  0  0  0  0  0  0
    3.8114   -2.4714    0.5640 H   0  0  0  0  0  0  0  0  0  0  0  0
   -1.0247    2.2323    0.8230 H   0  0  0  0  0  0  0  0  0  0  0  0
    0.3297    1.7021    1.8814 H   0  0  0  0  0  0  0  0  0  0  0  0
   -2.3875    1.1018   -2.6630 H   0  0  0  0  0  0  0  0  0  0  0  0
   -3.9234    1.8446   -2.1403 H   0  0  0  0  0  0  0  0  0  0  0  0
   -1.1099    2.9177   -1.5630 H   0  0  0  0  0  0  0  0  0  0  0  0
   -2.2995    3.6148   -2.6677 H   0  0  0  0  0  0  0  0  0  0  0  0
   -2.6135    3.6180   -0.9273 H   0  0  0  0  0  0  0  0  0  0  0  0
   -4.6901   -2.2651    1.2169 H   0  0  0  0  0  0  0  0  0  0  0  0
   -3.3230   -1.5563    2.1214 H   0  0  0  0  0  0  0  0  0  0  0  0
   -5.4648    0.0555    0.6455 H   0  0  0  0  0  0  0  0  0  0  0  0
   -5.4091   -0.2017    2.3974 H   0  0  0  0  0  0  0  0  0  0  0  0
   -4.1313    0.7252    1.5972 H   0  0  0  0  0  0  0  0  0  0  0  0
  1  2  1  0  0  0  0
  2  3  1  0  0  0  0
  3  4  2  0  0  0  0
  4  5  2  0  0  0  0
  4  6  2  0  0  0  0
  6  7  1  0  0  0  0
  7  8  1  0  0  0  0
  4  9  1  0  0  0  0
  9 10  1  0  0  0  0
 10 11  1  0  0  0  0
 11 12  1  0  0  0  0
 12 13  2  0  0  0  0
 12 14  2  0  0  0  0
 14 15  1  0  0  0  0
 15 16  1  0  0  0  0
 12 17  2  0  0  0  0
 17 18  1  0  0  0  0
 18 19  1  0  0  0  0
  1 20  1  0  0  0  0
  1 21  1  0  0  0  0
  1 22  1  0  0  0  0
  2 23  1  0  0  0  0
  2 24  1  0  0  0  0
  7 25  1  0  0  0  0
  7 26  1  0  0  0  0
  8 27  1  0  0  0  0
  8 28  1  0  0  0  0
  8 29  1  0  0  0  0
 10 30  1  0  0  0  0
 10 31  1  0  0  0  0
 15 32  1  0  0  0  0
 15 33  1  0  0  0  0
 16 34  1  0  0  0  0
 16 35  1  0  0  0  0
 16 36  1  0  0  0  0
 18 37  1  0  0  0  0
 18 38  1  0  0  0  0
 19 39  1  0  0  0  0
 19 40  1  0  0  0  0
 19 41  1  0  0  0  0
M  END
