 xtb: 6.7.1 (edcfbbe)
          04092507313D

 38 37  0     0  0            999 V2000
    3.6138   -3.6077    0.3550 C   0  0  0  0  0  0  0  0  0  0  0  0
    3.9544   -2.7148   -0.8271 C   0  0  0  0  0  0  0  0  0  0  0  0
    2.7567   -2.2337   -1.4728 O   0  0  0  0  0  0  0  0  0  0  0  0
    2.1819   -1.1490   -1.0077 C   0  0  0  0  0  0  0  0  0  0  0  0
    2.6002   -0.4859   -0.0798 O   0  0  0  0  0  0  0  0  0  0  0  0
    0.9053   -0.8252   -1.7496 C   0  0  0  0  0  0  0  0  0  0  0  0
    0.4937    0.6284   -1.5210 C   0  0  0  0  0  0  0  0  0  0  0  0
    0.9589    1.3063   -2.2363 H   0  0  0  0  0  0  0  0  0  0  0  0
    0.7798    1.1097   -0.1127 C   0  0  0  0  0  0  0  0  0  0  0  0
    0.1630    0.6443    0.8352 O   0  0  0  0  0  0  0  0  0  0  0  0
    1.5729    2.1382   -0.0704 O   0  0  0  0  0  0  0  0  0  0  0  0
    1.8712    2.7408    1.2089 C   0  0  0  0  0  0  0  0  0  0  0  0
    3.1920    2.2160    1.7444 C   0  0  0  0  0  0  0  0  0  0  0  0
   -1.3136    0.8278   -1.6992 S   0  0  0  0  0  0  0  0  0  0  0  0
   -2.0925    0.2122    0.1851 P   0  0  0  0  0  0  0  0  0  0  0  0
   -2.4335    1.3838    1.7318 S   0  0  0  0  0  0  0  0  0  0  0  0
   -3.4740   -0.0714   -0.5952 O   0  0  0  0  0  0  0  0  0  0  0  0
   -4.6938   -0.3722    0.0840 C   0  0  0  0  0  0  0  0  0  0  0  0
   -1.6808   -1.3050    0.5212 O   0  0  0  0  0  0  0  0  0  0  0  0
   -0.9768   -1.7174    1.6900 C   0  0  0  0  0  0  0  0  0  0  0  0
    2.9751   -4.4263    0.0352 H   0  0  0  0  0  0  0  0  0  0  0  0
    4.5294   -4.0114    0.7743 H   0  0  0  0  0  0  0  0  0  0  0  0
    3.0989   -3.0353    1.1238 H   0  0  0  0  0  0  0  0  0  0  0  0
    4.4759   -3.2692   -1.6069 H   0  0  0  0  0  0  0  0  0  0  0  0
    4.5474   -1.8540   -0.5063 H   0  0  0  0  0  0  0  0  0  0  0  0
    0.1353   -1.4985   -1.3600 H   0  0  0  0  0  0  0  0  0  0  0  0
    1.0188   -1.0370   -2.8114 H   0  0  0  0  0  0  0  0  0  0  0  0
    1.9196    3.8105    1.0011 H   0  0  0  0  0  0  0  0  0  0  0  0
    1.0480    2.5246    1.8961 H   0  0  0  0  0  0  0  0  0  0  0  0
    3.3911    2.6669    2.7106 H   0  0  0  0  0  0  0  0  0  0  0  0
    3.1424    1.1355    1.8534 H   0  0  0  0  0  0  0  0  0  0  0  0
    3.9962    2.4593    1.0564 H   0  0  0  0  0  0  0  0  0  0  0  0
   -4.7075   -1.4227    0.3728 H   0  0  0  0  0  0  0  0  0  0  0  0
   -5.4893   -0.1595   -0.6260 H   0  0  0  0  0  0  0  0  0  0  0  0
   -4.7972    0.2576    0.9709 H   0  0  0  0  0  0  0  0  0  0  0  0
   -1.3394   -2.7166    1.9197 H   0  0  0  0  0  0  0  0  0  0  0  0
   -1.1816   -1.0320    2.5140 H   0  0  0  0  0  0  0  0  0  0  0  0
    0.0951   -1.7266    1.4948 H   0  0  0  0  0  0  0  0  0  0  0  0
  1  2  1  0  0  0  0
  2  3  1  0  0  0  0
  3  4  4  0  0  0  0
  4  5  2  0  0  0  0
  4  6  1  0  0  0  0
  6  7  1  0  0  0  0
  7  8  1  0  0  0  0
  7  9  1  0  0  0  0
  9 10  2  0  0  0  0
  9 11  4  0  0  0  0
 11 12  1  0  0  0  0
 12 13  1  0  0  0  0
  7 14  1  0  0  0  0
 14 15  1  0  0  0  0
 15 16  2  0  0  0  0
 15 17  1  0  0  0  0
 17 18  1  0  0  0  0
 15 19  1  0  0  0  0
 19 20  1  0  0  0  0
  1 21  1  0  0  0  0
  1 22  1  0  0  0  0
  1 23  1  0  0  0  0
  2 24  1  0  0  0  0
  2 25  1  0  0  0  0
  6 26  1  0  0  0  0
  6 27  1  0  0  0  0
 12 28  1  0  0  0  0
 12 29  1  0  0  0  0
 13 30  1  0  0  0  0
 13 31  1  0  0  0  0
 13 32  1  0  0  0  0
 18 33  1  0  0  0  0
 18 34  1  0  0  0  0
 18 35  1  0  0  0  0
 20 36  1  0  0  0  0
 20 37  1  0  0  0  0
 20 38  1  0  0  0  0
M  END
