  20
 
 C         -2.2584652666        2.2093821562        0.0340149629
 C         -1.3340198746        1.0341460033       -0.2536153198
 H         -1.3979134050        0.7519643433       -1.3109741277
 C          0.1089314465        1.3286648534        0.1448941084
 C          1.0334351786        0.1669140820       -0.1987940113
 O          2.3566921013        0.5730482124        0.1613083135
 N          3.3439737424       -0.3317031869       -0.0255014840
 O          3.0419571532       -1.3934196716       -0.4791108468
 O          4.4251352839        0.0530758541        0.2930895223
 O         -1.7288532985       -0.1129269342        0.5333576940
 N         -2.7642663767       -0.8614317750        0.1015981511
 O         -3.3052020726       -0.5459727739       -0.9134448399
 O         -3.0177249696       -1.7864268215        0.8098115030
 H         -2.2618640087        2.4283210259        1.0977295250
 H         -3.2717668813        1.9834563096       -0.2880176903
 H         -1.9124386337        3.0816977749       -0.5086615025
 H          0.4454408927        2.2202454825       -0.3803474237
 H          0.1547040742        1.5151207323        1.2167144374
 H          0.7678059008       -0.7330390672        0.3641801126
 H          1.0101386398       -0.0640582100       -1.2687738549
          20
        -42.68383172
 C         -2.5769638533        1.5921082617        0.2842334468
 C         -1.1885913275        1.1350175797       -0.1425327199
 H         -1.1713712478        0.9248275288       -1.2186906480
 C         -0.1095893751        2.1478163487        0.2373130027
 C          1.2627273094        1.8627881922       -0.3691063583
 O          1.9677572831        0.8297010453        0.3325869307
 N          1.9025655876       -0.4363289478       -0.1256754695
 O          1.2383682542       -0.6556480104       -1.0958132933
 O          2.5407837615       -1.2152377865        0.5098963151
 O         -0.8391130331       -0.0915852443        0.5444643903
 N         -1.3235547651       -1.2541558759        0.0653149965
 O         -2.0523966334       -1.2184344074       -0.8764887919
 O         -0.9428372628       -2.2136457657        0.6644422932
 H         -2.6068344794        1.7370991647        1.3602815995
 H         -3.3227336767        0.8528747206        0.0025549621
 H         -2.8166086465        2.5260329375       -0.2114175767
 H         -0.4318482183        3.1257791089       -0.1131680655
 H         -0.0180529348        2.1729013636        1.3230073773
 H          1.1827940711        1.5908685010       -1.4251176621
 H          1.9099872924        2.7319819405       -0.2521304652
