  19
 
 C         -2.5704760901        1.4442710845        0.0073682967
 C         -1.6024146816        0.3108419727        0.0185016168
 C         -1.8836061188       -1.0229087137        0.0531002200
 N         -0.7272607501       -1.7581360588        0.0523393696
 C          0.3339551811       -0.9044605758        0.0168584122
 C         -0.1773545660        0.4180665354       -0.0055374632
 C          0.7092537531        1.4941944413       -0.0428777392
 C          2.0612227277        1.2353549206       -0.0568570035
 C          2.5515099997       -0.0740401643       -0.0344702928
 C          1.7005491491       -1.1574739831        0.0025042571
 H         -2.4472434376        2.0414864649       -0.8955269877
 H         -3.5902400887        1.0706090849        0.0444141658
 H         -2.4030939831        2.0953664636        0.8646827497
 H         -2.8401356291       -1.5087345721        0.0794198673
 H         -0.6747134670       -2.7616260163        0.0746856597
 H          0.3384019223        2.5084053002       -0.0603859806
 H          2.7642533082        2.0555079270       -0.0854396218
 H          3.6196531468       -0.2344812845       -0.0462529356
 H          2.0823326683       -2.1672689750        0.0200601673
          19
        -26.79160510
 C         -2.5937011013        1.4077779336        0.0004585092
 C         -1.6081083565        0.2897472581       -0.0000197499
 C         -1.8689962990       -1.0487043514       -0.0000041426
 N         -0.7010031224       -1.7654612235       -0.0001846870
 C          0.3470080508       -0.8948714592       -0.0002977945
 C         -0.1847804710        0.4196067395       -0.0002635605
 C          0.6851192359        1.5097627621       -0.0004794114
 C          2.0411766499        1.2723256292       -0.0000177959
 C          2.5516294209       -0.0294832378        0.0004168289
 C          1.7173251428       -1.1264199829        0.0001759326
 H         -2.4634908348        2.0307881327       -0.8839985469
 H         -3.6081221578        1.0176396213        0.0080152436
 H         -2.4532737820        2.0388978833        0.8775404125
 H         -2.8177198860       -1.5500235146        0.0002048038
 H         -0.6322655797       -2.7683317073        0.0003085008
 H          0.2989894832        2.5184778889       -0.0009316458
 H          2.7313990451        2.1037236843        0.0000133007
 H          3.6221926701       -0.1733892517        0.0012649699
 H          2.1143535182       -2.1305785785        0.0005211568
