38
 xtb: 6.7.1 (edcfbbe)
C            5.15289117269247       -0.87269890619292        0.65759002356479
C            4.75277123305615       -1.61861087112015       -0.59324592912471
O            3.30263290248548       -1.84074371571946       -0.62397750614215
C            2.54091477190592       -0.82780576445015       -1.05768599692415
O            2.97365336348884        0.24362859892821       -1.44870692172386
C            1.07943958688231       -1.19171025754463       -1.01437422344287
C            0.21875196331034       -0.00485718444552       -1.41423109828885
H            0.43562663724671        0.28881049520027       -2.44607069651072
C            0.40242543799164        1.24995732453721       -0.57504048106929
O            0.14536708613157        2.36742288377061       -0.98396372468973
O            0.84384686083366        0.96402871586287        0.64886024086571
C            1.06487098624380        2.09036077691224        1.56140524750541
C            2.43637071066343        2.68128874136872        1.33693252276468
S           -1.59436988982299       -0.41484560601236       -1.51295938426701
P           -2.26544135203721       -0.50673776683168        0.50831181939409
S           -1.41030621628816       -1.76137393078385        1.71525454726568
O           -2.22753590931551        0.98826672126508        1.08847121044847
C           -2.95804538854581        2.07750452724363        0.44458150216083
O           -3.83437446237920       -0.71345967759804        0.20453007528156
C           -4.37714897334657       -2.04717388371073       -0.02313813393850
H            4.83565493404917       -1.41659618206407        1.55196927056225
H            6.24317983887840       -0.77857570065669        0.68109365106368
H            4.72107064723510        0.13140169147151        0.67875156668067
H            5.16919917484549       -2.62702901127490       -0.61149011135807
H            5.04462161368116       -1.09022767810856       -1.50399475721149
H            0.83177800351023       -1.55967749060255       -0.01534813163332
H            0.91480982780139       -2.02101330690731       -1.71080867950149
H            0.26603533688640        2.82113972189171        1.41408002701461
H            0.97152323266827        1.64301970483392        2.55243994182593
H            2.60245761972168        3.47865369141477        2.06807341712837
H            3.21228464851631        1.92229316242757        1.47305910579494
H            2.52709403647138        3.10882949229428        0.33462106348485
H           -2.57013888963262        2.99234627072408        0.89199869675581
H           -4.02476062325144        1.97305873356609        0.65302010482410
H           -2.77537129333140        2.07971785310560       -0.63309394402199
H           -4.25041307813374       -2.65613750781264        0.87451980889661
H           -3.88860996647869       -2.52068076551017       -0.87887073364555
H           -5.43559862565562       -1.89671249583810       -0.23396891432752
