 xtb: 6.7.1 (edcfbbe)
          04092505213D

 41 40  0     0  0            999 V2000
    2.6483    0.4724   -2.6926 C   0  0  0  0  0  0  0  0  0  0  0  0
    1.6491   -0.6343   -2.4344 C   0  0  0  0  0  0  0  0  0  0  0  0
    1.1381   -0.6291   -1.0844 O   0  0  0  0  0  0  0  0  0  0  0  0
    2.0206   -0.5484    0.2328 P   0  0  0  0  0  0  0  0  0  0  0  0
    2.8854    1.1358    0.7632 S   0  0  0  0  0  0  0  0  0  0  0  0
    3.0264   -1.7553   -0.0028 O   0  0  0  0  0  0  0  0  0  0  0  0
    4.2169   -1.9288    0.7851 C   0  0  0  0  0  0  0  0  0  0  0  0
    3.8986   -2.3659    2.2000 C   0  0  0  0  0  0  0  0  0  0  0  0
    0.6121   -1.2896    1.6136 S   0  0  0  0  0  0  0  0  0  0  0  0
   -0.2658    0.2525    2.0326 C   0  0  0  0  0  0  0  0  0  0  0  0
   -1.9857    0.2560    1.4880 S   0  0  0  0  0  0  0  0  0  0  0  0
   -1.7796    1.0343   -0.4829 P   0  0  0  0  0  0  0  0  0  0  0  0
   -0.2241    2.1893   -0.7621 S   0  0  0  0  0  0  0  0  0  0  0  0
   -3.0645    1.9039   -0.7693 O   0  0  0  0  0  0  0  0  0  0  0  0
   -4.4181    1.4088   -0.8914 C   0  0  0  0  0  0  0  0  0  0  0  0
   -5.0852    1.2458    0.4592 C   0  0  0  0  0  0  0  0  0  0  0  0
   -1.9286   -0.1853   -1.4978 O   0  0  0  0  0  0  0  0  0  0  0  0
   -1.8674   -1.6023   -1.2268 C   0  0  0  0  0  0  0  0  0  0  0  0
   -3.2369   -2.1564   -0.8887 C   0  0  0  0  0  0  0  0  0  0  0  0
    2.2113    1.4371   -2.4382 H   0  0  0  0  0  0  0  0  0  0  0  0
    3.5398    0.3269   -2.0835 H   0  0  0  0  0  0  0  0  0  0  0  0
    2.9284    0.4708   -3.7413 H   0  0  0  0  0  0  0  0  0  0  0  0
    2.0924   -1.6159   -2.6173 H   0  0  0  0  0  0  0  0  0  0  0  0
    0.7535   -0.5027   -3.0455 H   0  0  0  0  0  0  0  0  0  0  0  0
    4.7809   -2.6893    0.2435 H   0  0  0  0  0  0  0  0  0  0  0  0
    4.7692   -0.9835    0.7904 H   0  0  0  0  0  0  0  0  0  0  0  0
    4.8217   -2.6057    2.7177 H   0  0  0  0  0  0  0  0  0  0  0  0
    3.3951   -1.5599    2.7320 H   0  0  0  0  0  0  0  0  0  0  0  0
    3.2505   -3.2384    2.1898 H   0  0  0  0  0  0  0  0  0  0  0  0
    0.2648    1.0969    1.5821 H   0  0  0  0  0  0  0  0  0  0  0  0
   -0.2893    0.3331    3.1159 H   0  0  0  0  0  0  0  0  0  0  0  0
   -4.9158    2.1759   -1.4874 H   0  0  0  0  0  0  0  0  0  0  0  0
   -4.3985    0.4686   -1.4454 H   0  0  0  0  0  0  0  0  0  0  0  0
   -5.0382    2.1792    1.0133 H   0  0  0  0  0  0  0  0  0  0  0  0
   -6.1247    0.9718    0.3079 H   0  0  0  0  0  0  0  0  0  0  0  0
   -4.5939    0.4717    1.0451 H   0  0  0  0  0  0  0  0  0  0  0  0
   -1.4778   -2.0346   -2.1500 H   0  0  0  0  0  0  0  0  0  0  0  0
   -1.1603   -1.7942   -0.4167 H   0  0  0  0  0  0  0  0  0  0  0  0
   -3.1527   -3.2298   -0.7515 H   0  0  0  0  0  0  0  0  0  0  0  0
   -3.6091   -1.7136    0.0323 H   0  0  0  0  0  0  0  0  0  0  0  0
   -3.9373   -1.9570   -1.6952 H   0  0  0  0  0  0  0  0  0  0  0  0
  1  2  1  0  0  0  0
  2  3  1  0  0  0  0
  3  4  2  0  0  0  0
  4  5  2  0  0  0  0
  4  6  2  0  0  0  0
  6  7  1  0  0  0  0
  7  8  1  0  0  0  0
  4  9  1  0  0  0  0
  9 10  1  0  0  0  0
 10 11  1  0  0  0  0
 11 12  1  0  0  0  0
 12 13  2  0  0  0  0
 12 14  2  0  0  0  0
 14 15  1  0  0  0  0
 15 16  1  0  0  0  0
 12 17  2  0  0  0  0
 17 18  1  0  0  0  0
 18 19  1  0  0  0  0
  1 20  1  0  0  0  0
  1 21  1  0  0  0  0
  1 22  1  0  0  0  0
  2 23  1  0  0  0  0
  2 24  1  0  0  0  0
  7 25  1  0  0  0  0
  7 26  1  0  0  0  0
  8 27  1  0  0  0  0
  8 28  1  0  0  0  0
  8 29  1  0  0  0  0
 10 30  1  0  0  0  0
 10 31  1  0  0  0  0
 15 32  1  0  0  0  0
 15 33  1  0  0  0  0
 16 34  1  0  0  0  0
 16 35  1  0  0  0  0
 16 36  1  0  0  0  0
 18 37  1  0  0  0  0
 18 38  1  0  0  0  0
 19 39  1  0  0  0  0
 19 40  1  0  0  0  0
 19 41  1  0  0  0  0
M  END
