 xtb: 6.7.1 (edcfbbe)
          04092507313D

 38 37  0     0  0            999 V2000
    4.0551   -1.7635    1.3595 C   0  0  0  0  0  0  0  0  0  0  0  0
    2.8136   -2.4771    0.8498 C   0  0  0  0  0  0  0  0  0  0  0  0
    2.3898   -1.9231   -0.4103 O   0  0  0  0  0  0  0  0  0  0  0  0
    1.5916   -0.8888   -0.4026 C   0  0  0  0  0  0  0  0  0  0  0  0
    1.1775   -0.3275    0.5996 O   0  0  0  0  0  0  0  0  0  0  0  0
    1.2456   -0.4060   -1.7931 C   0  0  0  0  0  0  0  0  0  0  0  0
    0.4492    0.8860   -1.6778 C   0  0  0  0  0  0  0  0  0  0  0  0
    0.4375    1.4111   -2.6376 H   0  0  0  0  0  0  0  0  0  0  0  0
    1.1075    1.8037   -0.6523 C   0  0  0  0  0  0  0  0  0  0  0  0
    2.3084    1.9660   -0.6301 O   0  0  0  0  0  0  0  0  0  0  0  0
    0.2472    2.4217    0.1234 O   0  0  0  0  0  0  0  0  0  0  0  0
    0.7660    3.3692    1.0789 C   0  0  0  0  0  0  0  0  0  0  0  0
    0.9785    4.7287    0.4334 C   0  0  0  0  0  0  0  0  0  0  0  0
   -1.3250    0.6386   -1.3407 S   0  0  0  0  0  0  0  0  0  0  0  0
   -1.5702   -0.7914    0.2134 P   0  0  0  0  0  0  0  0  0  0  0  0
   -0.8384   -2.6009    0.0135 S   0  0  0  0  0  0  0  0  0  0  0  0
   -1.3246   -0.1323    1.6281 O   0  0  0  0  0  0  0  0  0  0  0  0
   -2.0434    1.0416    2.0537 C   0  0  0  0  0  0  0  0  0  0  0  0
   -3.1737   -0.8111    0.2037 O   0  0  0  0  0  0  0  0  0  0  0  0
   -3.9131   -1.4470   -0.8435 C   0  0  0  0  0  0  0  0  0  0  0  0
    4.8552   -1.8396    0.6287 H   0  0  0  0  0  0  0  0  0  0  0  0
    3.8357   -0.7119    1.5336 H   0  0  0  0  0  0  0  0  0  0  0  0
    4.3730   -2.2181    2.2918 H   0  0  0  0  0  0  0  0  0  0  0  0
    1.9867   -2.3913    1.5614 H   0  0  0  0  0  0  0  0  0  0  0  0
    3.0112   -3.5264    0.6310 H   0  0  0  0  0  0  0  0  0  0  0  0
    0.6897   -1.1825   -2.3210 H   0  0  0  0  0  0  0  0  0  0  0  0
    2.1808   -0.2271   -2.3265 H   0  0  0  0  0  0  0  0  0  0  0  0
    0.0085    3.4133    1.8611 H   0  0  0  0  0  0  0  0  0  0  0  0
    1.7027    2.9730    1.4807 H   0  0  0  0  0  0  0  0  0  0  0  0
    0.0533    5.0775   -0.0169 H   0  0  0  0  0  0  0  0  0  0  0  0
    1.2983    5.4358    1.1915 H   0  0  0  0  0  0  0  0  0  0  0  0
    1.7462    4.6630   -0.3342 H   0  0  0  0  0  0  0  0  0  0  0  0
   -1.5609    1.3453    2.9793 H   0  0  0  0  0  0  0  0  0  0  0  0
   -3.0883    0.7887    2.2238 H   0  0  0  0  0  0  0  0  0  0  0  0
   -1.9644    1.8224    1.2975 H   0  0  0  0  0  0  0  0  0  0  0  0
   -3.9110   -0.8168   -1.7317 H   0  0  0  0  0  0  0  0  0  0  0  0
   -4.9225   -1.5671   -0.4583 H   0  0  0  0  0  0  0  0  0  0  0  0
   -3.4751   -2.4197   -1.0731 H   0  0  0  0  0  0  0  0  0  0  0  0
  1  2  1  0  0  0  0
  2  3  1  0  0  0  0
  3  4  4  0  0  0  0
  4  5  2  0  0  0  0
  4  6  1  0  0  0  0
  6  7  1  0  0  0  0
  7  8  1  0  0  0  0
  7  9  1  0  0  0  0
  9 10  2  0  0  0  0
  9 11  1  0  0  0  0
 11 12  1  0  0  0  0
 12 13  1  0  0  0  0
  7 14  1  0  0  0  0
 14 15  1  0  0  0  0
 15 16  2  0  0  0  0
 15 17  2  0  0  0  0
 17 18  1  0  0  0  0
 15 19  1  0  0  0  0
 19 20  1  0  0  0  0
  1 21  1  0  0  0  0
  1 22  1  0  0  0  0
  1 23  1  0  0  0  0
  2 24  1  0  0  0  0
  2 25  1  0  0  0  0
  6 26  1  0  0  0  0
  6 27  1  0  0  0  0
 12 28  1  0  0  0  0
 12 29  1  0  0  0  0
 13 30  1  0  0  0  0
 13 31  1  0  0  0  0
 13 32  1  0  0  0  0
 18 33  1  0  0  0  0
 18 34  1  0  0  0  0
 18 35  1  0  0  0  0
 20 36  1  0  0  0  0
 20 37  1  0  0  0  0
 20 38  1  0  0  0  0
M  END
