 xtb: 6.7.1 (edcfbbe)
          04092505213D

 41 40  0     0  0            999 V2000
    1.4744   -2.9718    1.4731 C   0  0  0  0  0  0  0  0  0  0  0  0
    2.1933   -1.7501    2.0077 C   0  0  0  0  0  0  0  0  0  0  0  0
    1.6924   -0.5446    1.3738 O   0  0  0  0  0  0  0  0  0  0  0  0
    2.4243    0.1141    0.1383 P   0  0  0  0  0  0  0  0  0  0  0  0
    3.3391   -1.0965   -1.1093 S   0  0  0  0  0  0  0  0  0  0  0  0
    3.3830    1.1529    0.8633 O   0  0  0  0  0  0  0  0  0  0  0  0
    4.3957    1.8930    0.1524 C   0  0  0  0  0  0  0  0  0  0  0  0
    5.4741    2.2826    1.1434 C   0  0  0  0  0  0  0  0  0  0  0  0
    0.8960    1.3175   -0.6801 S   0  0  0  0  0  0  0  0  0  0  0  0
    0.1526    0.0118   -1.6989 C   0  0  0  0  0  0  0  0  0  0  0  0
   -0.9069   -1.0888   -0.7426 S   0  0  0  0  0  0  0  0  0  0  0  0
   -2.4617    0.3359   -0.3891 P   0  0  0  0  0  0  0  0  0  0  0  0
   -2.7785    1.5288   -1.9107 S   0  0  0  0  0  0  0  0  0  0  0  0
   -2.1353    1.1420    0.9224 O   0  0  0  0  0  0  0  0  0  0  0  0
   -2.3560    0.6912    2.2828 C   0  0  0  0  0  0  0  0  0  0  0  0
   -1.5580   -0.5498    2.6193 C   0  0  0  0  0  0  0  0  0  0  0  0
   -3.6900   -0.5668    0.0497 O   0  0  0  0  0  0  0  0  0  0  0  0
   -4.3918   -1.3827   -0.9129 C   0  0  0  0  0  0  0  0  0  0  0  0
   -5.7227   -1.7757   -0.3049 C   0  0  0  0  0  0  0  0  0  0  0  0
    0.4010   -2.8636    1.5960 H   0  0  0  0  0  0  0  0  0  0  0  0
    1.6897   -3.1007    0.4145 H   0  0  0  0  0  0  0  0  0  0  0  0
    1.8151   -3.8492    2.0132 H   0  0  0  0  0  0  0  0  0  0  0  0
    3.2701   -1.8241    1.8355 H   0  0  0  0  0  0  0  0  0  0  0  0
    2.0000   -1.6011    3.0709 H   0  0  0  0  0  0  0  0  0  0  0  0
    4.7960    1.2599   -0.6470 H   0  0  0  0  0  0  0  0  0  0  0  0
    3.9223    2.7729   -0.2907 H   0  0  0  0  0  0  0  0  0  0  0  0
    6.2293    2.8716    0.6333 H   0  0  0  0  0  0  0  0  0  0  0  0
    5.0417    2.8696    1.9485 H   0  0  0  0  0  0  0  0  0  0  0  0
    5.9361    1.3937    1.5636 H   0  0  0  0  0  0  0  0  0  0  0  0
    0.9427   -0.5957   -2.1419 H   0  0  0  0  0  0  0  0  0  0  0  0
   -0.4449    0.5113   -2.4624 H   0  0  0  0  0  0  0  0  0  0  0  0
   -2.0392    1.5483    2.8793 H   0  0  0  0  0  0  0  0  0  0  0  0
   -3.4258    0.5192    2.4132 H   0  0  0  0  0  0  0  0  0  0  0  0
   -0.5032   -0.3848    2.4126 H   0  0  0  0  0  0  0  0  0  0  0  0
   -1.6854   -0.7784    3.6729 H   0  0  0  0  0  0  0  0  0  0  0  0
   -1.9074   -1.3933    2.0268 H   0  0  0  0  0  0  0  0  0  0  0  0
   -4.5245   -0.8011   -1.8309 H   0  0  0  0  0  0  0  0  0  0  0  0
   -3.7746   -2.2584   -1.1296 H   0  0  0  0  0  0  0  0  0  0  0  0
   -6.3121   -0.8886   -0.0901 H   0  0  0  0  0  0  0  0  0  0  0  0
   -6.2627   -2.4011   -1.0081 H   0  0  0  0  0  0  0  0  0  0  0  0
   -5.5637   -2.3267    0.6173 H   0  0  0  0  0  0  0  0  0  0  0  0
  1  2  1  0  0  0  0
  2  3  1  0  0  0  0
  3  4  2  0  0  0  0
  4  5  2  0  0  0  0
  4  6  2  0  0  0  0
  6  7  1  0  0  0  0
  7  8  1  0  0  0  0
  4  9  1  0  0  0  0
  9 10  1  0  0  0  0
 10 11  1  0  0  0  0
 11 12  1  0  0  0  0
 12 13  2  0  0  0  0
 12 14  2  0  0  0  0
 14 15  1  0  0  0  0
 15 16  1  0  0  0  0
 12 17  2  0  0  0  0
 17 18  1  0  0  0  0
 18 19  1  0  0  0  0
  1 20  1  0  0  0  0
  1 21  1  0  0  0  0
  1 22  1  0  0  0  0
  2 23  1  0  0  0  0
  2 24  1  0  0  0  0
  7 25  1  0  0  0  0
  7 26  1  0  0  0  0
  8 27  1  0  0  0  0
  8 28  1  0  0  0  0
  8 29  1  0  0  0  0
 10 30  1  0  0  0  0
 10 31  1  0  0  0  0
 15 32  1  0  0  0  0
 15 33  1  0  0  0  0
 16 34  1  0  0  0  0
 16 35  1  0  0  0  0
 16 36  1  0  0  0  0
 18 37  1  0  0  0  0
 18 38  1  0  0  0  0
 19 39  1  0  0  0  0
 19 40  1  0  0  0  0
 19 41  1  0  0  0  0
M  END
