 xtb: 6.7.1 (edcfbbe)
          04092514023D

 41 40  0     0  0            999 V2000
    5.8060    0.9437   -0.2265 C   0  0  0  0  0  0  0  0  0  0  0  0
    4.4389    1.4745   -0.6152 C   0  0  0  0  0  0  0  0  0  0  0  0
    3.5333    0.3844   -0.9014 O   0  0  0  0  0  0  0  0  0  0  0  0
    2.3959   -0.0738    0.1075 P   0  0  0  0  0  0  0  0  0  0  0  0
    2.9555   -0.4418    1.9517 S   0  0  0  0  0  0  0  0  0  0  0  0
    1.7484   -1.2808   -0.6795 O   0  0  0  0  0  0  0  0  0  0  0  0
    1.9614   -2.6638   -0.3380 C   0  0  0  0  0  0  0  0  0  0  0  0
    3.2533   -3.1880   -0.9289 C   0  0  0  0  0  0  0  0  0  0  0  0
    0.9202    1.4220   -0.1318 S   0  0  0  0  0  0  0  0  0  0  0  0
   -0.0258    1.0973    1.3813 C   0  0  0  0  0  0  0  0  0  0  0  0
   -1.0086   -0.4339    1.3557 S   0  0  0  0  0  0  0  0  0  0  0  0
   -2.2858   -0.0903   -0.3063 P   0  0  0  0  0  0  0  0  0  0  0  0
   -1.6724   -0.5793   -2.0940 S   0  0  0  0  0  0  0  0  0  0  0  0
   -2.6267    1.4536   -0.0711 O   0  0  0  0  0  0  0  0  0  0  0  0
   -3.0287    2.3099   -1.1602 C   0  0  0  0  0  0  0  0  0  0  0  0
   -4.4555    2.0317   -1.5885 C   0  0  0  0  0  0  0  0  0  0  0  0
   -3.5805   -0.9256    0.0734 O   0  0  0  0  0  0  0  0  0  0  0  0
   -4.3754   -0.6606    1.2594 C   0  0  0  0  0  0  0  0  0  0  0  0
   -5.8187   -1.0085    0.9529 C   0  0  0  0  0  0  0  0  0  0  0  0
    6.1794    0.2748   -0.9969 H   0  0  0  0  0  0  0  0  0  0  0  0
    6.4921    1.7775   -0.1147 H   0  0  0  0  0  0  0  0  0  0  0  0
    5.7488    0.4024    0.7152 H   0  0  0  0  0  0  0  0  0  0  0  0
    4.4872    2.0520   -1.5404 H   0  0  0  0  0  0  0  0  0  0  0  0
    4.0214    2.0971    0.1812 H   0  0  0  0  0  0  0  0  0  0  0  0
    1.9635   -2.7589    0.7536 H   0  0  0  0  0  0  0  0  0  0  0  0
    1.0898   -3.1754   -0.7506 H   0  0  0  0  0  0  0  0  0  0  0  0
    4.1033   -2.6771   -0.4794 H   0  0  0  0  0  0  0  0  0  0  0  0
    3.3301   -4.2522   -0.7275 H   0  0  0  0  0  0  0  0  0  0  0  0
    3.2685   -3.0216   -2.0027 H   0  0  0  0  0  0  0  0  0  0  0  0
   -0.6851    1.9486    1.5237 H   0  0  0  0  0  0  0  0  0  0  0  0
    0.6610    0.9786    2.2208 H   0  0  0  0  0  0  0  0  0  0  0  0
   -2.9136    3.3186   -0.7614 H   0  0  0  0  0  0  0  0  0  0  0  0
   -2.3384    2.1587   -1.9957 H   0  0  0  0  0  0  0  0  0  0  0  0
   -4.7376    2.7325   -2.3683 H   0  0  0  0  0  0  0  0  0  0  0  0
   -4.5318    1.0181   -1.9814 H   0  0  0  0  0  0  0  0  0  0  0  0
   -5.1351    2.1414   -0.7470 H   0  0  0  0  0  0  0  0  0  0  0  0
   -3.9786   -1.2825    2.0647 H   0  0  0  0  0  0  0  0  0  0  0  0
   -4.2686    0.3929    1.5293 H   0  0  0  0  0  0  0  0  0  0  0  0
   -5.8965   -2.0504    0.6561 H   0  0  0  0  0  0  0  0  0  0  0  0
   -6.4185   -0.8440    1.8427 H   0  0  0  0  0  0  0  0  0  0  0  0
   -6.1976   -0.3879    0.1454 H   0  0  0  0  0  0  0  0  0  0  0  0
  1  2  1  0  0  0  0
  2  3  1  0  0  0  0
  3  4  2  0  0  0  0
  4  5  2  0  0  0  0
  4  6  2  0  0  0  0
  6  7  1  0  0  0  0
  7  8  1  0  0  0  0
  4  9  1  0  0  0  0
  9 10  1  0  0  0  0
 10 11  1  0  0  0  0
 11 12  1  0  0  0  0
 12 13  2  0  0  0  0
 12 14  1  0  0  0  0
 14 15  1  0  0  0  0
 15 16  1  0  0  0  0
 12 17  2  0  0  0  0
 17 18  1  0  0  0  0
 18 19  1  0  0  0  0
  1 20  1  0  0  0  0
  1 21  1  0  0  0  0
  1 22  1  0  0  0  0
  2 23  1  0  0  0  0
  2 24  1  0  0  0  0
  7 25  1  0  0  0  0
  7 26  1  0  0  0  0
  8 27  1  0  0  0  0
  8 28  1  0  0  0  0
  8 29  1  0  0  0  0
 10 30  1  0  0  0  0
 10 31  1  0  0  0  0
 15 32  1  0  0  0  0
 15 33  1  0  0  0  0
 16 34  1  0  0  0  0
 16 35  1  0  0  0  0
 16 36  1  0  0  0  0
 18 37  1  0  0  0  0
 18 38  1  0  0  0  0
 19 39  1  0  0  0  0
 19 40  1  0  0  0  0
 19 41  1  0  0  0  0
M  END
