 xtb: 6.7.1 (edcfbbe)
          04092513583D

 41 40  0     0  0            999 V2000
    4.1203   -2.0643   -2.0640 C   0  0  0  0  0  0  0  0  0  0  0  0
    4.5624   -1.6166   -0.6862 C   0  0  0  0  0  0  0  0  0  0  0  0
    3.4528   -1.2977    0.1746 O   0  0  0  0  0  0  0  0  0  0  0  0
    2.5363   -0.0134   -0.0194 P   0  0  0  0  0  0  0  0  0  0  0  0
    3.4237    1.6000   -0.6680 S   0  0  0  0  0  0  0  0  0  0  0  0
    1.9194    0.1824    1.4197 O   0  0  0  0  0  0  0  0  0  0  0  0
    1.3094   -0.8994    2.1659 C   0  0  0  0  0  0  0  0  0  0  0  0
    2.2166   -1.3367    3.2972 C   0  0  0  0  0  0  0  0  0  0  0  0
    0.9138   -0.7385   -1.2118 S   0  0  0  0  0  0  0  0  0  0  0  0
    0.2288    0.8787   -1.6464 C   0  0  0  0  0  0  0  0  0  0  0  0
   -0.4948    1.7684   -0.2358 S   0  0  0  0  0  0  0  0  0  0  0  0
   -2.3022    0.6676   -0.1135 P   0  0  0  0  0  0  0  0  0  0  0  0
   -3.1979    0.2323   -1.8014 S   0  0  0  0  0  0  0  0  0  0  0  0
   -3.0298    1.6748    0.8643 O   0  0  0  0  0  0  0  0  0  0  0  0
   -4.4660    1.7698    0.9864 C   0  0  0  0  0  0  0  0  0  0  0  0
   -5.0229    0.7027    1.9066 C   0  0  0  0  0  0  0  0  0  0  0  0
   -1.9714   -0.5878    0.8111 O   0  0  0  0  0  0  0  0  0  0  0  0
   -1.9840   -1.9575    0.3625 C   0  0  0  0  0  0  0  0  0  0  0  0
   -3.2766   -2.6390    0.7659 C   0  0  0  0  0  0  0  0  0  0  0  0
    3.4030   -2.8772   -1.9894 H   0  0  0  0  0  0  0  0  0  0  0  0
    3.6596   -1.2351   -2.5983 H   0  0  0  0  0  0  0  0  0  0  0  0
    4.9891   -2.4009   -2.6214 H   0  0  0  0  0  0  0  0  0  0  0  0
    5.2083   -0.7360   -0.7560 H   0  0  0  0  0  0  0  0  0  0  0  0
    5.0806   -2.4157   -0.1538 H   0  0  0  0  0  0  0  0  0  0  0  0
    0.3679   -0.4900    2.5400 H   0  0  0  0  0  0  0  0  0  0  0  0
    1.1082   -1.7288    1.4821 H   0  0  0  0  0  0  0  0  0  0  0  0
    2.4441   -0.4915    3.9407 H   0  0  0  0  0  0  0  0  0  0  0  0
    1.7146   -2.1049    3.8773 H   0  0  0  0  0  0  0  0  0  0  0  0
    3.1461   -1.7359    2.8996 H   0  0  0  0  0  0  0  0  0  0  0  0
   -0.5367    0.7064   -2.4035 H   0  0  0  0  0  0  0  0  0  0  0  0
    1.0280    1.5134   -2.0292 H   0  0  0  0  0  0  0  0  0  0  0  0
   -4.6309    2.7707    1.3890 H   0  0  0  0  0  0  0  0  0  0  0  0
   -4.9084    1.6972   -0.0127 H   0  0  0  0  0  0  0  0  0  0  0  0
   -6.0815    0.8855    2.0649 H   0  0  0  0  0  0  0  0  0  0  0  0
   -4.8960   -0.2812    1.4618 H   0  0  0  0  0  0  0  0  0  0  0  0
   -4.5070    0.7280    2.8627 H   0  0  0  0  0  0  0  0  0  0  0  0
   -1.8549   -1.9858   -0.7232 H   0  0  0  0  0  0  0  0  0  0  0  0
   -1.1231   -2.4231    0.8437 H   0  0  0  0  0  0  0  0  0  0  0  0
   -3.4425   -2.5297    1.8341 H   0  0  0  0  0  0  0  0  0  0  0  0
   -4.1137   -2.2051    0.2228 H   0  0  0  0  0  0  0  0  0  0  0  0
   -3.2108   -3.6938    0.5193 H   0  0  0  0  0  0  0  0  0  0  0  0
  1  2  1  0  0  0  0
  2  3  1  0  0  0  0
  3  4  2  0  0  0  0
  4  5  2  0  0  0  0
  4  6  2  0  0  0  0
  6  7  1  0  0  0  0
  7  8  1  0  0  0  0
  4  9  1  0  0  0  0
  9 10  1  0  0  0  0
 10 11  1  0  0  0  0
 11 12  1  0  0  0  0
 12 13  2  0  0  0  0
 12 14  2  0  0  0  0
 14 15  1  0  0  0  0
 15 16  1  0  0  0  0
 12 17  2  0  0  0  0
 17 18  1  0  0  0  0
 18 19  1  0  0  0  0
  1 20  1  0  0  0  0
  1 21  1  0  0  0  0
  1 22  1  0  0  0  0
  2 23  1  0  0  0  0
  2 24  1  0  0  0  0
  7 25  1  0  0  0  0
  7 26  1  0  0  0  0
  8 27  1  0  0  0  0
  8 28  1  0  0  0  0
  8 29  1  0  0  0  0
 10 30  1  0  0  0  0
 10 31  1  0  0  0  0
 15 32  1  0  0  0  0
 15 33  1  0  0  0  0
 16 34  1  0  0  0  0
 16 35  1  0  0  0  0
 16 36  1  0  0  0  0
 18 37  1  0  0  0  0
 18 38  1  0  0  0  0
 19 39  1  0  0  0  0
 19 40  1  0  0  0  0
 19 41  1  0  0  0  0
M  END
