 xtb: 6.7.1 (edcfbbe)
          04092505213D

 41 40  0     0  0            999 V2000
    5.1417    1.0594   -0.6098 C   0  0  0  0  0  0  0  0  0  0  0  0
    4.7089   -0.3925   -0.5716 C   0  0  0  0  0  0  0  0  0  0  0  0
    3.4648   -0.5591    0.1324 O   0  0  0  0  0  0  0  0  0  0  0  0
    2.0669   -0.1091   -0.5073 P   0  0  0  0  0  0  0  0  0  0  0  0
    1.9666   -0.2509   -2.4498 S   0  0  0  0  0  0  0  0  0  0  0  0
    1.8079    1.3703    0.0082 O   0  0  0  0  0  0  0  0  0  0  0  0
    1.8174    1.7014    1.4169 C   0  0  0  0  0  0  0  0  0  0  0  0
    2.3172    3.1236    1.5647 C   0  0  0  0  0  0  0  0  0  0  0  0
    0.8881   -1.4004    0.6764 S   0  0  0  0  0  0  0  0  0  0  0  0
   -0.2769   -2.0220   -0.5870 C   0  0  0  0  0  0  0  0  0  0  0  0
   -1.9889   -1.9228   -0.0431 S   0  0  0  0  0  0  0  0  0  0  0  0
   -2.0929    0.1958    0.1749 P   0  0  0  0  0  0  0  0  0  0  0  0
   -1.1630    1.1993   -1.2325 S   0  0  0  0  0  0  0  0  0  0  0  0
   -1.5017    0.6256    1.5739 O   0  0  0  0  0  0  0  0  0  0  0  0
   -2.0826    0.3579    2.8771 C   0  0  0  0  0  0  0  0  0  0  0  0
   -1.8598   -1.0730    3.3238 C   0  0  0  0  0  0  0  0  0  0  0  0
   -3.6414    0.4583    0.3966 O   0  0  0  0  0  0  0  0  0  0  0  0
   -4.7019   -0.0969   -0.4047 C   0  0  0  0  0  0  0  0  0  0  0  0
   -4.5521    0.2261   -1.8761 C   0  0  0  0  0  0  0  0  0  0  0  0
    6.0947    1.1378   -1.1236 H   0  0  0  0  0  0  0  0  0  0  0  0
    4.3998    1.6492   -1.1487 H   0  0  0  0  0  0  0  0  0  0  0  0
    5.2436    1.4510    0.3993 H   0  0  0  0  0  0  0  0  0  0  0  0
    5.4126   -1.0129   -0.0149 H   0  0  0  0  0  0  0  0  0  0  0  0
    4.5873   -0.7845   -1.5863 H   0  0  0  0  0  0  0  0  0  0  0  0
    0.7892    1.6032    1.7750 H   0  0  0  0  0  0  0  0  0  0  0  0
    2.4572    0.9879    1.9453 H   0  0  0  0  0  0  0  0  0  0  0  0
    3.3384    3.2071    1.2032 H   0  0  0  0  0  0  0  0  0  0  0  0
    1.6872    3.7937    0.9859 H   0  0  0  0  0  0  0  0  0  0  0  0
    2.2801    3.4065    2.6117 H   0  0  0  0  0  0  0  0  0  0  0  0
   -0.0723   -3.0754   -0.7608 H   0  0  0  0  0  0  0  0  0  0  0  0
   -0.1386   -1.4365   -1.5004 H   0  0  0  0  0  0  0  0  0  0  0  0
   -1.5623    1.0621    3.5286 H   0  0  0  0  0  0  0  0  0  0  0  0
   -3.1446    0.6041    2.8390 H   0  0  0  0  0  0  0  0  0  0  0  0
   -2.1361   -1.1593    4.3699 H   0  0  0  0  0  0  0  0  0  0  0  0
   -2.4665   -1.7607    2.7404 H   0  0  0  0  0  0  0  0  0  0  0  0
   -0.8131   -1.3450    3.2062 H   0  0  0  0  0  0  0  0  0  0  0  0
   -4.7187   -1.1783   -0.2457 H   0  0  0  0  0  0  0  0  0  0  0  0
   -5.6022    0.3569    0.0133 H   0  0  0  0  0  0  0  0  0  0  0  0
   -5.4131   -0.1501   -2.4189 H   0  0  0  0  0  0  0  0  0  0  0  0
   -4.4734    1.3007   -2.0236 H   0  0  0  0  0  0  0  0  0  0  0  0
   -3.6509   -0.2391   -2.2735 H   0  0  0  0  0  0  0  0  0  0  0  0
  1  2  1  0  0  0  0
  2  3  1  0  0  0  0
  3  4  1  0  0  0  0
  4  5  2  0  0  0  0
  4  6  2  0  0  0  0
  6  7  1  0  0  0  0
  7  8  1  0  0  0  0
  4  9  1  0  0  0  0
  9 10  1  0  0  0  0
 10 11  1  0  0  0  0
 11 12  1  0  0  0  0
 12 13  2  0  0  0  0
 12 14  2  0  0  0  0
 14 15  1  0  0  0  0
 15 16  1  0  0  0  0
 12 17  2  0  0  0  0
 17 18  1  0  0  0  0
 18 19  1  0  0  0  0
  1 20  1  0  0  0  0
  1 21  1  0  0  0  0
  1 22  1  0  0  0  0
  2 23  1  0  0  0  0
  2 24  1  0  0  0  0
  7 25  1  0  0  0  0
  7 26  1  0  0  0  0
  8 27  1  0  0  0  0
  8 28  1  0  0  0  0
  8 29  1  0  0  0  0
 10 30  1  0  0  0  0
 10 31  1  0  0  0  0
 15 32  1  0  0  0  0
 15 33  1  0  0  0  0
 16 34  1  0  0  0  0
 16 35  1  0  0  0  0
 16 36  1  0  0  0  0
 18 37  1  0  0  0  0
 18 38  1  0  0  0  0
 19 39  1  0  0  0  0
 19 40  1  0  0  0  0
 19 41  1  0  0  0  0
M  END
