 xtb: 6.7.1 (edcfbbe)
          04032520463D

  9  8  0     0  0            999 V2000
   -1.6347   -0.4746    0.0000 C   0  0  0  0  0  0  0  0  0  0  0  0
   -0.6019    0.6564    0.0000 C   0  0  0  0  0  0  0  0  0  0  0  0
    0.7360    0.1355   -0.0002 C   0  0  0  0  0  0  0  0  0  0  0  0
    1.7982   -0.2945   -0.0001 N   0  0  0  0  0  0  0  0  0  0  0  0
   -1.5171   -1.0993    0.8822 H   0  0  0  0  0  0  0  0  0  0  0  0
   -2.6356   -0.0529    0.0001 H   0  0  0  0  0  0  0  0  0  0  0  0
   -1.5172   -1.0992   -0.8822 H   0  0  0  0  0  0  0  0  0  0  0  0
   -0.7213    1.2826    0.8875 H   0  0  0  0  0  0  0  0  0  0  0  0
   -0.7214    1.2827   -0.8874 H   0  0  0  0  0  0  0  0  0  0  0  0
  1  2  1  0  0  0  0
  2  3  1  0  0  0  0
  3  4  3  0  0  0  0
  1  5  1  0  0  0  0
  1  6  1  0  0  0  0
  1  7  1  0  0  0  0
  2  8  1  0  0  0  0
  2  9  1  0  0  0  0
M  END
