 xtb: 6.7.1 (edcfbbe)
          04092505203D

 41 40  0     0  0            999 V2000
    2.6502    0.2420   -2.8920 C   0  0  0  0  0  0  0  0  0  0  0  0
    3.5900    0.5831   -1.7534 C   0  0  0  0  0  0  0  0  0  0  0  0
    3.3919   -0.2788   -0.6222 O   0  0  0  0  0  0  0  0  0  0  0  0
    2.0795   -0.2226    0.2745 P   0  0  0  0  0  0  0  0  0  0  0  0
    1.4783    1.6130    0.6395 S   0  0  0  0  0  0  0  0  0  0  0  0
    2.4858   -1.0640    1.5515 O   0  0  0  0  0  0  0  0  0  0  0  0
    3.0112   -0.4427    2.7433 C   0  0  0  0  0  0  0  0  0  0  0  0
    4.4179    0.0737    2.5282 C   0  0  0  0  0  0  0  0  0  0  0  0
    0.8527   -1.6831   -0.6480 S   0  0  0  0  0  0  0  0  0  0  0  0
   -0.2456   -2.0871    0.7421 C   0  0  0  0  0  0  0  0  0  0  0  0
   -1.0811   -0.6503    1.4727 S   0  0  0  0  0  0  0  0  0  0  0  0
   -2.0943    0.0840   -0.2362 P   0  0  0  0  0  0  0  0  0  0  0  0
   -1.1766    0.9693   -1.7322 S   0  0  0  0  0  0  0  0  0  0  0  0
   -3.2409    0.9733    0.4133 O   0  0  0  0  0  0  0  0  0  0  0  0
   -3.0942    2.3820    0.6491 C   0  0  0  0  0  0  0  0  0  0  0  0
   -2.1433    2.6631    1.7947 C   0  0  0  0  0  0  0  0  0  0  0  0
   -2.8533   -1.2526   -0.6141 O   0  0  0  0  0  0  0  0  0  0  0  0
   -3.4380   -1.4607   -1.9168 C   0  0  0  0  0  0  0  0  0  0  0  0
   -4.6576   -0.5888   -2.1272 C   0  0  0  0  0  0  0  0  0  0  0  0
    1.6197    0.4583   -2.6058 H   0  0  0  0  0  0  0  0  0  0  0  0
    2.8997    0.8414   -3.7615 H   0  0  0  0  0  0  0  0  0  0  0  0
    2.7273   -0.8130   -3.1434 H   0  0  0  0  0  0  0  0  0  0  0  0
    3.4427    1.6199   -1.4324 H   0  0  0  0  0  0  0  0  0  0  0  0
    4.6333    0.4221   -2.0282 H   0  0  0  0  0  0  0  0  0  0  0  0
    2.3394    0.3711    3.0348 H   0  0  0  0  0  0  0  0  0  0  0  0
    2.9797   -1.2378    3.4892 H   0  0  0  0  0  0  0  0  0  0  0  0
    4.8135    0.4446    3.4685 H   0  0  0  0  0  0  0  0  0  0  0  0
    5.0568   -0.7210    2.1521 H   0  0  0  0  0  0  0  0  0  0  0  0
    4.4050    0.8870    1.8038 H   0  0  0  0  0  0  0  0  0  0  0  0
    0.3336   -2.5384    1.5445 H   0  0  0  0  0  0  0  0  0  0  0  0
   -0.9856   -2.7813    0.3504 H   0  0  0  0  0  0  0  0  0  0  0  0
   -2.7374    2.8558   -0.2718 H   0  0  0  0  0  0  0  0  0  0  0  0
   -4.1072    2.7188    0.8736 H   0  0  0  0  0  0  0  0  0  0  0  0
   -2.1486    3.7249    2.0185 H   0  0  0  0  0  0  0  0  0  0  0  0
   -2.4405    2.1038    2.6783 H   0  0  0  0  0  0  0  0  0  0  0  0
   -1.1285    2.3721    1.5210 H   0  0  0  0  0  0  0  0  0  0  0  0
   -2.6767   -1.2523   -2.6754 H   0  0  0  0  0  0  0  0  0  0  0  0
   -3.6918   -2.5215   -1.9233 H   0  0  0  0  0  0  0  0  0  0  0  0
   -5.1283   -0.8485   -3.0701 H   0  0  0  0  0  0  0  0  0  0  0  0
   -5.3658   -0.7311   -1.3152 H   0  0  0  0  0  0  0  0  0  0  0  0
   -4.3615    0.4590   -2.1559 H   0  0  0  0  0  0  0  0  0  0  0  0
  1  2  1  0  0  0  0
  2  3  1  0  0  0  0
  3  4  2  0  0  0  0
  4  5  2  0  0  0  0
  4  6  2  0  0  0  0
  6  7  1  0  0  0  0
  7  8  1  0  0  0  0
  4  9  1  0  0  0  0
  9 10  1  0  0  0  0
 10 11  1  0  0  0  0
 11 12  1  0  0  0  0
 12 13  2  0  0  0  0
 12 14  2  0  0  0  0
 14 15  1  0  0  0  0
 15 16  1  0  0  0  0
 12 17  2  0  0  0  0
 17 18  1  0  0  0  0
 18 19  1  0  0  0  0
  1 20  1  0  0  0  0
  1 21  1  0  0  0  0
  1 22  1  0  0  0  0
  2 23  1  0  0  0  0
  2 24  1  0  0  0  0
  7 25  1  0  0  0  0
  7 26  1  0  0  0  0
  8 27  1  0  0  0  0
  8 28  1  0  0  0  0
  8 29  1  0  0  0  0
 10 30  1  0  0  0  0
 10 31  1  0  0  0  0
 15 32  1  0  0  0  0
 15 33  1  0  0  0  0
 16 34  1  0  0  0  0
 16 35  1  0  0  0  0
 16 36  1  0  0  0  0
 18 37  1  0  0  0  0
 18 38  1  0  0  0  0
 19 39  1  0  0  0  0
 19 40  1  0  0  0  0
 19 41  1  0  0  0  0
M  END
