 xtb: 6.7.1 (edcfbbe)
          04092505213D

 41 40  0     0  0            999 V2000
    0.2322   -2.2762    2.3388 C   0  0  0  0  0  0  0  0  0  0  0  0
    1.3126   -1.2271    2.1796 C   0  0  0  0  0  0  0  0  0  0  0  0
    1.9276   -1.4090    0.8787 O   0  0  0  0  0  0  0  0  0  0  0  0
    2.6086   -0.2360    0.0771 P   0  0  0  0  0  0  0  0  0  0  0  0
    3.4873   -0.8709   -1.5482 S   0  0  0  0  0  0  0  0  0  0  0  0
    3.5453    0.4135    1.1849 O   0  0  0  0  0  0  0  0  0  0  0  0
    4.6514    1.2799    0.8672 C   0  0  0  0  0  0  0  0  0  0  0  0
    4.2044    2.5753    0.2221 C   0  0  0  0  0  0  0  0  0  0  0  0
    1.0805    1.2306   -0.2105 S   0  0  0  0  0  0  0  0  0  0  0  0
    0.3886    0.4838   -1.7036 C   0  0  0  0  0  0  0  0  0  0  0  0
   -0.5050   -1.0569   -1.3599 S   0  0  0  0  0  0  0  0  0  0  0  0
   -2.1972   -0.1280   -0.4956 P   0  0  0  0  0  0  0  0  0  0  0  0
   -2.8628    1.4523   -1.4532 S   0  0  0  0  0  0  0  0  0  0  0  0
   -1.8498    0.1408    1.0361 O   0  0  0  0  0  0  0  0  0  0  0  0
   -1.8550    1.4428    1.6505 C   0  0  0  0  0  0  0  0  0  0  0  0
   -3.1742    1.6828    2.3570 C   0  0  0  0  0  0  0  0  0  0  0  0
   -3.0704   -1.4483   -0.4460 O   0  0  0  0  0  0  0  0  0  0  0  0
   -4.2668   -1.5760    0.3539 C   0  0  0  0  0  0  0  0  0  0  0  0
   -5.4569   -0.8996   -0.2972 C   0  0  0  0  0  0  0  0  0  0  0  0
   -0.5432   -2.1363    1.5889 H   0  0  0  0  0  0  0  0  0  0  0  0
    0.6577   -3.2678    2.2146 H   0  0  0  0  0  0  0  0  0  0  0  0
   -0.2059   -2.1905    3.3280 H   0  0  0  0  0  0  0  0  0  0  0  0
    2.0976   -1.3385    2.9297 H   0  0  0  0  0  0  0  0  0  0  0  0
    0.9025   -0.2143    2.2338 H   0  0  0  0  0  0  0  0  0  0  0  0
    5.1269    1.4532    1.8336 H   0  0  0  0  0  0  0  0  0  0  0  0
    5.3338    0.7367    0.2068 H   0  0  0  0  0  0  0  0  0  0  0  0
    3.7984    2.3775   -0.7688 H   0  0  0  0  0  0  0  0  0  0  0  0
    3.4389    3.0565    0.8256 H   0  0  0  0  0  0  0  0  0  0  0  0
    5.0577    3.2386    0.1246 H   0  0  0  0  0  0  0  0  0  0  0  0
    1.2002    0.2355   -2.3881 H   0  0  0  0  0  0  0  0  0  0  0  0
   -0.2942    1.2125   -2.1428 H   0  0  0  0  0  0  0  0  0  0  0  0
   -1.0187    1.4337    2.3506 H   0  0  0  0  0  0  0  0  0  0  0  0
   -1.6813    2.2044    0.8848 H   0  0  0  0  0  0  0  0  0  0  0  0
   -3.1351    2.6400    2.8666 H   0  0  0  0  0  0  0  0  0  0  0  0
   -3.9847    1.7044    1.6310 H   0  0  0  0  0  0  0  0  0  0  0  0
   -3.3645    0.8977    3.0836 H   0  0  0  0  0  0  0  0  0  0  0  0
   -4.4148   -2.6550    0.4267 H   0  0  0  0  0  0  0  0  0  0  0  0
   -4.0720   -1.1625    1.3466 H   0  0  0  0  0  0  0  0  0  0  0  0
   -6.3421   -1.0700    0.3074 H   0  0  0  0  0  0  0  0  0  0  0  0
   -5.2860    0.1717   -0.3853 H   0  0  0  0  0  0  0  0  0  0  0  0
   -5.6189   -1.3028   -1.2935 H   0  0  0  0  0  0  0  0  0  0  0  0
  1  2  1  0  0  0  0
  2  3  1  0  0  0  0
  3  4  2  0  0  0  0
  4  5  2  0  0  0  0
  4  6  2  0  0  0  0
  6  7  1  0  0  0  0
  7  8  1  0  0  0  0
  4  9  1  0  0  0  0
  9 10  1  0  0  0  0
 10 11  1  0  0  0  0
 11 12  1  0  0  0  0
 12 13  2  0  0  0  0
 12 14  2  0  0  0  0
 14 15  1  0  0  0  0
 15 16  1  0  0  0  0
 12 17  2  0  0  0  0
 17 18  1  0  0  0  0
 18 19  1  0  0  0  0
  1 20  1  0  0  0  0
  1 21  1  0  0  0  0
  1 22  1  0  0  0  0
  2 23  1  0  0  0  0
  2 24  1  0  0  0  0
  7 25  1  0  0  0  0
  7 26  1  0  0  0  0
  8 27  1  0  0  0  0
  8 28  1  0  0  0  0
  8 29  1  0  0  0  0
 10 30  1  0  0  0  0
 10 31  1  0  0  0  0
 15 32  1  0  0  0  0
 15 33  1  0  0  0  0
 16 34  1  0  0  0  0
 16 35  1  0  0  0  0
 16 36  1  0  0  0  0
 18 37  1  0  0  0  0
 18 38  1  0  0  0  0
 19 39  1  0  0  0  0
 19 40  1  0  0  0  0
 19 41  1  0  0  0  0
M  END
