 xtb: 6.7.1 (edcfbbe)
          04092514033D

 41 40  0     0  0            999 V2000
    3.6793   -1.5012   -2.8829 C   0  0  0  0  0  0  0  0  0  0  0  0
    4.1519   -0.3003   -2.0890 C   0  0  0  0  0  0  0  0  0  0  0  0
    3.7289   -0.3486   -0.7154 O   0  0  0  0  0  0  0  0  0  0  0  0
    2.2270   -0.1622   -0.2306 P   0  0  0  0  0  0  0  0  0  0  0  0
    1.1647    1.1269   -1.2650 S   0  0  0  0  0  0  0  0  0  0  0  0
    2.4084    0.1708    1.3090 O   0  0  0  0  0  0  0  0  0  0  0  0
    2.4869    1.5195    1.8083 C   0  0  0  0  0  0  0  0  0  0  0  0
    3.8038    2.1802    1.4588 C   0  0  0  0  0  0  0  0  0  0  0  0
    1.5483   -2.1483   -0.0652 S   0  0  0  0  0  0  0  0  0  0  0  0
   -0.0280   -1.9068    0.7981 C   0  0  0  0  0  0  0  0  0  0  0  0
   -1.4330   -1.5356   -0.3017 S   0  0  0  0  0  0  0  0  0  0  0  0
   -2.1371    0.3042    0.5267 P   0  0  0  0  0  0  0  0  0  0  0  0
   -1.2007    0.9244    2.1271 S   0  0  0  0  0  0  0  0  0  0  0  0
   -3.6997    0.0361    0.7074 O   0  0  0  0  0  0  0  0  0  0  0  0
   -4.2229   -0.8780    1.6928 C   0  0  0  0  0  0  0  0  0  0  0  0
   -5.7289   -0.7066    1.7449 C   0  0  0  0  0  0  0  0  0  0  0  0
   -2.1519    1.3723   -0.6212 O   0  0  0  0  0  0  0  0  0  0  0  0
   -2.7895    1.1347   -1.9045 C   0  0  0  0  0  0  0  0  0  0  0  0
   -2.2601    2.1674   -2.8758 C   0  0  0  0  0  0  0  0  0  0  0  0
    2.5921   -1.5002   -2.9497 H   0  0  0  0  0  0  0  0  0  0  0  0
    4.0946   -1.4497   -3.8849 H   0  0  0  0  0  0  0  0  0  0  0  0
    3.9997   -2.4241   -2.4066 H   0  0  0  0  0  0  0  0  0  0  0  0
    3.7772    0.6268   -2.5344 H   0  0  0  0  0  0  0  0  0  0  0  0
    5.2409   -0.2684   -2.0234 H   0  0  0  0  0  0  0  0  0  0  0  0
    1.6432    2.0900    1.4045 H   0  0  0  0  0  0  0  0  0  0  0  0
    2.3595    1.4081    2.8862 H   0  0  0  0  0  0  0  0  0  0  0  0
    4.6346    1.5721    1.8067 H   0  0  0  0  0  0  0  0  0  0  0  0
    3.8843    2.3062    0.3798 H   0  0  0  0  0  0  0  0  0  0  0  0
    3.8469    3.1568    1.9316 H   0  0  0  0  0  0  0  0  0  0  0  0
    0.0649   -1.0996    1.5303 H   0  0  0  0  0  0  0  0  0  0  0  0
   -0.2372   -2.8563    1.2836 H   0  0  0  0  0  0  0  0  0  0  0  0
   -3.9511   -1.8944    1.3944 H   0  0  0  0  0  0  0  0  0  0  0  0
   -3.7614   -0.6492    2.6586 H   0  0  0  0  0  0  0  0  0  0  0  0
   -5.9831    0.3106    2.0291 H   0  0  0  0  0  0  0  0  0  0  0  0
   -6.1650   -0.9207    0.7735 H   0  0  0  0  0  0  0  0  0  0  0  0
   -6.1369   -1.3943    2.4790 H   0  0  0  0  0  0  0  0  0  0  0  0
   -2.5451    0.1187   -2.2289 H   0  0  0  0  0  0  0  0  0  0  0  0
   -3.8682    1.2227   -1.7625 H   0  0  0  0  0  0  0  0  0  0  0  0
   -2.4981    3.1672   -2.5243 H   0  0  0  0  0  0  0  0  0  0  0  0
   -1.1793    2.0767   -2.9571 H   0  0  0  0  0  0  0  0  0  0  0  0
   -2.7119    2.0070   -3.8491 H   0  0  0  0  0  0  0  0  0  0  0  0
  1  2  1  0  0  0  0
  2  3  1  0  0  0  0
  3  4  2  0  0  0  0
  4  5  2  0  0  0  0
  4  6  2  0  0  0  0
  6  7  1  0  0  0  0
  7  8  1  0  0  0  0
  4  9  1  0  0  0  0
  9 10  1  0  0  0  0
 10 11  1  0  0  0  0
 11 12  1  0  0  0  0
 12 13  2  0  0  0  0
 12 14  2  0  0  0  0
 14 15  1  0  0  0  0
 15 16  1  0  0  0  0
 12 17  2  0  0  0  0
 17 18  1  0  0  0  0
 18 19  1  0  0  0  0
  1 20  1  0  0  0  0
  1 21  1  0  0  0  0
  1 22  1  0  0  0  0
  2 23  1  0  0  0  0
  2 24  1  0  0  0  0
  7 25  1  0  0  0  0
  7 26  1  0  0  0  0
  8 27  1  0  0  0  0
  8 28  1  0  0  0  0
  8 29  1  0  0  0  0
 10 30  1  0  0  0  0
 10 31  1  0  0  0  0
 15 32  1  0  0  0  0
 15 33  1  0  0  0  0
 16 34  1  0  0  0  0
 16 35  1  0  0  0  0
 16 36  1  0  0  0  0
 18 37  1  0  0  0  0
 18 38  1  0  0  0  0
 19 39  1  0  0  0  0
 19 40  1  0  0  0  0
 19 41  1  0  0  0  0
M  END
