 xtb: 6.7.1 (edcfbbe)
          04092505213D

 41 40  0     0  0            999 V2000
    3.9567   -1.7696   -2.3584 C   0  0  0  0  0  0  0  0  0  0  0  0
    4.2368   -1.4052   -0.9148 C   0  0  0  0  0  0  0  0  0  0  0  0
    3.7626   -0.0921   -0.5695 O   0  0  0  0  0  0  0  0  0  0  0  0
    2.2349    0.3718   -0.5679 P   0  0  0  0  0  0  0  0  0  0  0  0
    1.4245    0.7214   -2.3158 S   0  0  0  0  0  0  0  0  0  0  0  0
    2.3552    1.7130    0.2466 O   0  0  0  0  0  0  0  0  0  0  0  0
    3.1827    1.9407    1.4111 C   0  0  0  0  0  0  0  0  0  0  0  0
    2.7498    1.1096    2.6008 C   0  0  0  0  0  0  0  0  0  0  0  0
    1.2892   -1.1496    0.5943 S   0  0  0  0  0  0  0  0  0  0  0  0
   -0.0269   -1.6573   -0.5563 C   0  0  0  0  0  0  0  0  0  0  0  0
   -1.6619   -1.7712    0.2021 S   0  0  0  0  0  0  0  0  0  0  0  0
   -2.1865    0.2535    0.6121 P   0  0  0  0  0  0  0  0  0  0  0  0
   -0.7838    1.6113    0.4195 S   0  0  0  0  0  0  0  0  0  0  0  0
   -2.7361    0.2205    2.0892 O   0  0  0  0  0  0  0  0  0  0  0  0
   -4.0435   -0.2552    2.4962 C   0  0  0  0  0  0  0  0  0  0  0  0
   -4.2613   -1.7172    2.1715 C   0  0  0  0  0  0  0  0  0  0  0  0
   -3.5181    0.5340   -0.2216 O   0  0  0  0  0  0  0  0  0  0  0  0
   -3.5215    1.0663   -1.5542 C   0  0  0  0  0  0  0  0  0  0  0  0
   -2.8245    0.1587   -2.5477 C   0  0  0  0  0  0  0  0  0  0  0  0
    2.8841   -1.8318   -2.5328 H   0  0  0  0  0  0  0  0  0  0  0  0
    4.3650   -1.0139   -3.0249 H   0  0  0  0  0  0  0  0  0  0  0  0
    4.4112   -2.7297   -2.5804 H   0  0  0  0  0  0  0  0  0  0  0  0
    5.3096   -1.3472   -0.7213 H   0  0  0  0  0  0  0  0  0  0  0  0
    3.7764   -2.1280   -0.2347 H   0  0  0  0  0  0  0  0  0  0  0  0
    4.2202    1.7350    1.1399 H   0  0  0  0  0  0  0  0  0  0  0  0
    3.0494    3.0072    1.6004 H   0  0  0  0  0  0  0  0  0  0  0  0
    3.3048    1.4272    3.4780 H   0  0  0  0  0  0  0  0  0  0  0  0
    1.6855    1.2456    2.7817 H   0  0  0  0  0  0  0  0  0  0  0  0
    2.9426    0.0529    2.4216 H   0  0  0  0  0  0  0  0  0  0  0  0
    0.1867   -2.6679   -0.8963 H   0  0  0  0  0  0  0  0  0  0  0  0
   -0.0285   -0.9519   -1.3925 H   0  0  0  0  0  0  0  0  0  0  0  0
   -4.0457   -0.0766    3.5725 H   0  0  0  0  0  0  0  0  0  0  0  0
   -4.7971    0.3695    2.0130 H   0  0  0  0  0  0  0  0  0  0  0  0
   -5.2197   -2.0292    2.5750 H   0  0  0  0  0  0  0  0  0  0  0  0
   -4.2646   -1.8685    1.0936 H   0  0  0  0  0  0  0  0  0  0  0  0
   -3.4734   -2.3262    2.6065 H   0  0  0  0  0  0  0  0  0  0  0  0
   -4.5826    1.1730   -1.7853 H   0  0  0  0  0  0  0  0  0  0  0  0
   -3.0432    2.0506   -1.5370 H   0  0  0  0  0  0  0  0  0  0  0  0
   -3.1874   -0.8617   -2.4534 H   0  0  0  0  0  0  0  0  0  0  0  0
   -3.0136    0.5164   -3.5548 H   0  0  0  0  0  0  0  0  0  0  0  0
   -1.7475    0.1769   -2.3804 H   0  0  0  0  0  0  0  0  0  0  0  0
  1  2  1  0  0  0  0
  2  3  1  0  0  0  0
  3  4  2  0  0  0  0
  4  5  2  0  0  0  0
  4  6  2  0  0  0  0
  6  7  1  0  0  0  0
  7  8  1  0  0  0  0
  4  9  1  0  0  0  0
  9 10  1  0  0  0  0
 10 11  1  0  0  0  0
 11 12  1  0  0  0  0
 12 13  2  0  0  0  0
 12 14  2  0  0  0  0
 14 15  1  0  0  0  0
 15 16  1  0  0  0  0
 12 17  2  0  0  0  0
 17 18  1  0  0  0  0
 18 19  1  0  0  0  0
  1 20  1  0  0  0  0
  1 21  1  0  0  0  0
  1 22  1  0  0  0  0
  2 23  1  0  0  0  0
  2 24  1  0  0  0  0
  7 25  1  0  0  0  0
  7 26  1  0  0  0  0
  8 27  1  0  0  0  0
  8 28  1  0  0  0  0
  8 29  1  0  0  0  0
 10 30  1  0  0  0  0
 10 31  1  0  0  0  0
 15 32  1  0  0  0  0
 15 33  1  0  0  0  0
 16 34  1  0  0  0  0
 16 35  1  0  0  0  0
 16 36  1  0  0  0  0
 18 37  1  0  0  0  0
 18 38  1  0  0  0  0
 19 39  1  0  0  0  0
 19 40  1  0  0  0  0
 19 41  1  0  0  0  0
M  END
