 xtb: 6.7.1 (edcfbbe)
          04092507313D

 38 37  0     0  0            999 V2000
    2.7132   -4.5496   -1.0996 C   0  0  0  0  0  0  0  0  0  0  0  0
    3.7672   -3.4633   -1.2441 C   0  0  0  0  0  0  0  0  0  0  0  0
    3.4430   -2.3274   -0.4192 O   0  0  0  0  0  0  0  0  0  0  0  0
    2.6253   -1.4147   -0.9024 C   0  0  0  0  0  0  0  0  0  0  0  0
    2.1480   -1.4324   -2.0152 O   0  0  0  0  0  0  0  0  0  0  0  0
    2.3685   -0.3152    0.1126 C   0  0  0  0  0  0  0  0  0  0  0  0
    0.9518    0.2142   -0.0531 C   0  0  0  0  0  0  0  0  0  0  0  0
    0.7586    0.4062   -1.1168 H   0  0  0  0  0  0  0  0  0  0  0  0
    0.6729    1.4957    0.7044 C   0  0  0  0  0  0  0  0  0  0  0  0
   -0.3570    1.6591    1.3281 O   0  0  0  0  0  0  0  0  0  0  0  0
    1.6317    2.3699    0.5852 O   0  0  0  0  0  0  0  0  0  0  0  0
    1.4261    3.6891    1.1399 C   0  0  0  0  0  0  0  0  0  0  0  0
    0.7120    4.5772    0.1347 C   0  0  0  0  0  0  0  0  0  0  0  0
   -0.2630   -1.0274    0.5076 S   0  0  0  0  0  0  0  0  0  0  0  0
   -2.0371    0.0680    0.0480 P   0  0  0  0  0  0  0  0  0  0  0  0
   -1.9716    1.5726   -1.2019 S   0  0  0  0  0  0  0  0  0  0  0  0
   -2.9076   -1.0756   -0.6397 O   0  0  0  0  0  0  0  0  0  0  0  0
   -3.2117   -2.3225    0.0073 C   0  0  0  0  0  0  0  0  0  0  0  0
   -2.8783    0.2408    1.3939 O   0  0  0  0  0  0  0  0  0  0  0  0
   -2.9498    1.3842    2.2456 C   0  0  0  0  0  0  0  0  0  0  0  0
    1.7532   -4.1870   -1.4610 H   0  0  0  0  0  0  0  0  0  0  0  0
    3.0062   -5.4159   -1.6833 H   0  0  0  0  0  0  0  0  0  0  0  0
    2.6110   -4.8352   -0.0564 H   0  0  0  0  0  0  0  0  0  0  0  0
    3.8414   -3.1314   -2.2835 H   0  0  0  0  0  0  0  0  0  0  0  0
    4.7383   -3.7976   -0.8793 H   0  0  0  0  0  0  0  0  0  0  0  0
    3.0723    0.4986   -0.0763 H   0  0  0  0  0  0  0  0  0  0  0  0
    2.5327   -0.7104    1.1143 H   0  0  0  0  0  0  0  0  0  0  0  0
    0.8451    3.5941    2.0605 H   0  0  0  0  0  0  0  0  0  0  0  0
    2.4311    4.0520    1.3534 H   0  0  0  0  0  0  0  0  0  0  0  0
    1.2976    4.6615   -0.7764 H   0  0  0  0  0  0  0  0  0  0  0  0
   -0.2596    4.1555   -0.1185 H   0  0  0  0  0  0  0  0  0  0  0  0
    0.5688    5.5637    0.5625 H   0  0  0  0  0  0  0  0  0  0  0  0
   -3.8765   -2.1488    0.8513 H   0  0  0  0  0  0  0  0  0  0  0  0
   -2.2917   -2.8004    0.3468 H   0  0  0  0  0  0  0  0  0  0  0  0
   -3.6996   -2.9266   -0.7533 H   0  0  0  0  0  0  0  0  0  0  0  0
   -3.9304    1.3348    2.7141 H   0  0  0  0  0  0  0  0  0  0  0  0
   -2.8495    2.2984    1.6611 H   0  0  0  0  0  0  0  0  0  0  0  0
   -2.1580    1.3370    2.9902 H   0  0  0  0  0  0  0  0  0  0  0  0
  1  2  1  0  0  0  0
  2  3  1  0  0  0  0
  3  4  1  0  0  0  0
  4  5  2  0  0  0  0
  4  6  1  0  0  0  0
  6  7  1  0  0  0  0
  7  8  1  0  0  0  0
  7  9  1  0  0  0  0
  9 10  2  0  0  0  0
  9 11  4  0  0  0  0
 11 12  1  0  0  0  0
 12 13  1  0  0  0  0
  7 14  1  0  0  0  0
 14 15  1  0  0  0  0
 15 16  2  0  0  0  0
 15 17  1  0  0  0  0
 17 18  1  0  0  0  0
 15 19  2  0  0  0  0
 19 20  1  0  0  0  0
  1 21  1  0  0  0  0
  1 22  1  0  0  0  0
  1 23  1  0  0  0  0
  2 24  1  0  0  0  0
  2 25  1  0  0  0  0
  6 26  1  0  0  0  0
  6 27  1  0  0  0  0
 12 28  1  0  0  0  0
 12 29  1  0  0  0  0
 13 30  1  0  0  0  0
 13 31  1  0  0  0  0
 13 32  1  0  0  0  0
 18 33  1  0  0  0  0
 18 34  1  0  0  0  0
 18 35  1  0  0  0  0
 20 36  1  0  0  0  0
 20 37  1  0  0  0  0
 20 38  1  0  0  0  0
M  END
