41
 xtb: 6.7.1 (edcfbbe)
C            4.11659428332831       -1.29073597469549       -2.83842651708885
C            4.39291858774204       -0.10526689924297       -1.94745814477332
O            3.84007747329634       -0.30170453150363       -0.60142439850400
P            2.27656540731673       -0.09914905988891       -0.25685558894691
S            1.27159605500207        1.07531332709671       -1.43446343686800
O            2.31347800702521        0.29555291417439        1.30139091297277
C            2.28220312434516        1.70093118247247        1.73810306455171
C            3.61343287922580        2.37493797139981        1.51436629569942
S            1.69724388639174       -2.13492363383285       -0.11000156742319
C            0.12085233948130       -2.02639908656845        0.82759638473930
S           -1.42144959438586       -1.92855027144321       -0.17376309789541
P           -2.25976091935280       -0.05528984464224        0.37628234770052
S           -1.51578265604712        0.79784957175207        1.96193324465113
O           -3.83510997735551       -0.40466112252322        0.42550254097883
C           -4.40573890965202       -1.10176246412951        1.58793344657345
C           -5.32249594268534       -0.16349660734078        2.33070868531972
O           -2.21662343571190        0.75429380119934       -1.00564779542864
C           -2.53549247749445        2.19090233898201       -1.02999711184561
C           -2.48443678871805        2.62833504137467       -2.47009453740159
H            4.48913949387289       -2.21531579100139       -2.38778866858809
H            3.04673511544053       -1.39681644338187       -3.04327899229229
H            4.63061793817714       -1.14162160268481       -3.79354754325287
H            3.98371406138298        0.82229903129342       -2.35836841280264
H            5.46230305136884        0.02447194393420       -1.76900527302218
H            1.46730764885280        2.20646943173769        1.21190801405557
H            2.03354856385792        1.63292014790436        2.79898874295892
H            3.57507836613841        3.38053759363173        1.94586998994998
H            4.42005429672753        1.82019654665158        2.00226367460719
H            3.84091891427703        2.47082433135280        0.44811661067764
H            0.14448714801998       -1.18737059567021        1.53154603426020
H            0.06585981346729       -2.95919559964479        1.39405204056277
H           -4.94355275986065       -1.95909095945293        1.17544597364259
H           -3.59793148108902       -1.46932999774165        2.22904853813812
H           -5.78882409872077       -0.70284546765002        3.16147883175104
H           -4.76571663629735        0.68565161408074        2.73665303699509
H           -6.11387877303037        0.20927770693171        1.67413402214976
H           -3.53062769216191        2.33557849634631       -0.59617066864642
H           -1.79280013998353        2.71201313706057       -0.41885517972470
H           -1.48903319730263        2.46357923208566       -2.89275501300133
H           -3.22258560718198        2.09073689866265       -3.07171920186946
H           -2.70872224542549        3.69816973733057       -2.52229616104674
