 xtb: 6.7.1 (edcfbbe)
          04092505203D

 41 40  0     0  0            999 V2000
    3.4368    2.3334   -1.7154 C   0  0  0  0  0  0  0  0  0  0  0  0
    3.9831    1.9146   -0.3655 C   0  0  0  0  0  0  0  0  0  0  0  0
    3.6389    0.5551   -0.0608 O   0  0  0  0  0  0  0  0  0  0  0  0
    2.1774    0.1218    0.4043 P   0  0  0  0  0  0  0  0  0  0  0  0
    1.3955    1.3831    1.6913 S   0  0  0  0  0  0  0  0  0  0  0  0
    2.4419   -1.3490    0.9153 O   0  0  0  0  0  0  0  0  0  0  0  0
    2.6101   -1.6939    2.3095 C   0  0  0  0  0  0  0  0  0  0  0  0
    1.8420   -2.9697    2.5892 C   0  0  0  0  0  0  0  0  0  0  0  0
    1.1784   -0.3109   -1.4168 S   0  0  0  0  0  0  0  0  0  0  0  0
    0.1637   -1.7212   -0.8866 C   0  0  0  0  0  0  0  0  0  0  0  0
   -0.8580   -1.3808    0.5720 S   0  0  0  0  0  0  0  0  0  0  0  0
   -2.1811   -0.0403   -0.3558 P   0  0  0  0  0  0  0  0  0  0  0  0
   -2.6839   -0.4016   -2.2198 S   0  0  0  0  0  0  0  0  0  0  0  0
   -1.4119    1.3154   -0.0921 O   0  0  0  0  0  0  0  0  0  0  0  0
   -1.8115    2.5664   -0.6959 C   0  0  0  0  0  0  0  0  0  0  0  0
   -0.5827    3.2442   -1.2664 C   0  0  0  0  0  0  0  0  0  0  0  0
   -3.4149    0.0888    0.6397 O   0  0  0  0  0  0  0  0  0  0  0  0
   -4.5735   -0.7599    0.5429 C   0  0  0  0  0  0  0  0  0  0  0  0
   -4.2559   -2.1970    0.9013 C   0  0  0  0  0  0  0  0  0  0  0  0
    3.7502    3.3486   -1.9362 H   0  0  0  0  0  0  0  0  0  0  0  0
    3.7970    1.6643   -2.4922 H   0  0  0  0  0  0  0  0  0  0  0  0
    2.3479    2.2924   -1.7007 H   0  0  0  0  0  0  0  0  0  0  0  0
    3.5932    2.5579    0.4312 H   0  0  0  0  0  0  0  0  0  0  0  0
    5.0737    1.9258   -0.3494 H   0  0  0  0  0  0  0  0  0  0  0  0
    3.6811   -1.8237    2.4775 H   0  0  0  0  0  0  0  0  0  0  0  0
    2.2442   -0.8647    2.9249 H   0  0  0  0  0  0  0  0  0  0  0  0
    0.7819   -2.8184    2.3967 H   0  0  0  0  0  0  0  0  0  0  0  0
    2.2062   -3.7720    1.9542 H   0  0  0  0  0  0  0  0  0  0  0  0
    1.9812   -3.2449    3.6295 H   0  0  0  0  0  0  0  0  0  0  0  0
    0.8067   -2.5599   -0.6342 H   0  0  0  0  0  0  0  0  0  0  0  0
   -0.4818   -1.9528   -1.7349 H   0  0  0  0  0  0  0  0  0  0  0  0
   -2.5516    2.3643   -1.4777 H   0  0  0  0  0  0  0  0  0  0  0  0
   -2.2675    3.1634    0.0962 H   0  0  0  0  0  0  0  0  0  0  0  0
    0.1657    3.3557   -0.4851 H   0  0  0  0  0  0  0  0  0  0  0  0
   -0.1686    2.6456   -2.0752 H   0  0  0  0  0  0  0  0  0  0  0  0
   -0.8554    4.2230   -1.6467 H   0  0  0  0  0  0  0  0  0  0  0  0
   -5.2824   -0.3145    1.2420 H   0  0  0  0  0  0  0  0  0  0  0  0
   -4.9632   -0.6942   -0.4780 H   0  0  0  0  0  0  0  0  0  0  0  0
   -3.7678   -2.2450    1.8716 H   0  0  0  0  0  0  0  0  0  0  0  0
   -5.1762   -2.7714    0.9306 H   0  0  0  0  0  0  0  0  0  0  0  0
   -3.5930   -2.6291    0.1526 H   0  0  0  0  0  0  0  0  0  0  0  0
  1  2  1  0  0  0  0
  2  3  1  0  0  0  0
  3  4  2  0  0  0  0
  4  5  2  0  0  0  0
  4  6  2  0  0  0  0
  6  7  1  0  0  0  0
  7  8  1  0  0  0  0
  4  9  1  0  0  0  0
  9 10  1  0  0  0  0
 10 11  1  0  0  0  0
 11 12  1  0  0  0  0
 12 13  2  0  0  0  0
 12 14  2  0  0  0  0
 14 15  1  0  0  0  0
 15 16  1  0  0  0  0
 12 17  2  0  0  0  0
 17 18  1  0  0  0  0
 18 19  1  0  0  0  0
  1 20  1  0  0  0  0
  1 21  1  0  0  0  0
  1 22  1  0  0  0  0
  2 23  1  0  0  0  0
  2 24  1  0  0  0  0
  7 25  1  0  0  0  0
  7 26  1  0  0  0  0
  8 27  1  0  0  0  0
  8 28  1  0  0  0  0
  8 29  1  0  0  0  0
 10 30  1  0  0  0  0
 10 31  1  0  0  0  0
 15 32  1  0  0  0  0
 15 33  1  0  0  0  0
 16 34  1  0  0  0  0
 16 35  1  0  0  0  0
 16 36  1  0  0  0  0
 18 37  1  0  0  0  0
 18 38  1  0  0  0  0
 19 39  1  0  0  0  0
 19 40  1  0  0  0  0
 19 41  1  0  0  0  0
M  END
