 xtb: 6.7.1 (edcfbbe)
          04032520423D

 16 16  0     0  0            999 V2000
   -1.8528   -1.4103   -0.0001 C   0  0  0  0  0  0  0  0  0  0  0  0
   -0.5282   -0.7124    0.0001 C   0  0  0  0  0  0  0  0  0  0  0  0
    0.6706   -1.4048    0.0003 C   0  0  0  0  0  0  0  0  0  0  0  0
    1.8871   -0.7409    0.0002 C   0  0  0  0  0  0  0  0  0  0  0  0
    1.9126    0.6410   -0.0001 C   0  0  0  0  0  0  0  0  0  0  0  0
    0.7264    1.3549   -0.0003 C   0  0  0  0  0  0  0  0  0  0  0  0
   -0.4904    0.6877   -0.0003 C   0  0  0  0  0  0  0  0  0  0  0  0
   -1.6800    1.3538   -0.0006 O   0  0  0  0  0  0  0  0  0  0  0  0
   -2.4260   -1.1210   -0.8797 H   0  0  0  0  0  0  0  0  0  0  0  0
   -1.7227   -2.4884    0.0050 H   0  0  0  0  0  0  0  0  0  0  0  0
   -2.4304   -1.1130    0.8740 H   0  0  0  0  0  0  0  0  0  0  0  0
    0.6499   -2.4848    0.0006 H   0  0  0  0  0  0  0  0  0  0  0  0
    2.8087   -1.3024    0.0004 H   0  0  0  0  0  0  0  0  0  0  0  0
    2.8537    1.1696   -0.0002 H   0  0  0  0  0  0  0  0  0  0  0  0
    0.7461    2.4356   -0.0006 H   0  0  0  0  0  0  0  0  0  0  0  0
   -1.5298    2.3105   -0.0006 H   0  0  0  0  0  0  0  0  0  0  0  0
  1  2  1  0  0  0  0
  2  3  4  0  0  0  0
  3  4  4  0  0  0  0
  4  5  4  0  0  0  0
  5  6  4  0  0  0  0
  2  7  4  0  0  0  0
  6  7  4  0  0  0  0
  7  8  1  0  0  0  0
  1  9  1  0  0  0  0
  1 10  1  0  0  0  0
  1 11  1  0  0  0  0
  3 12  1  0  0  0  0
  4 13  1  0  0  0  0
  5 14  1  0  0  0  0
  6 15  1  0  0  0  0
  8 16  1  0  0  0  0
M  END
