 xtb: 6.7.1 (edcfbbe)
          04032519423D

 20 20  0     0  0            999 V2000
    0.8260    1.3138   -0.9901 C   0  0  0  0  0  0  0  0  0  0  0  0
    1.4387    0.3454    0.0240 C   0  0  0  0  0  0  0  0  0  0  0  0
    2.4669    0.1351   -0.2896 H   0  0  0  0  0  0  0  0  0  0  0  0
    0.6418   -0.9861    0.0385 C   0  0  0  0  0  0  0  0  0  0  0  0
    0.6005   -1.3374    1.0800 H   0  0  0  0  0  0  0  0  0  0  0  0
   -0.7997   -0.7793   -0.4625 C   0  0  0  0  0  0  0  0  0  0  0  0
   -0.7991   -0.8764   -1.5570 H   0  0  0  0  0  0  0  0  0  0  0  0
   -1.2875    0.6303   -0.1011 C   0  0  0  0  0  0  0  0  0  0  0  0
   -2.3225    0.7615   -0.4519 H   0  0  0  0  0  0  0  0  0  0  0  0
   -0.5422    1.6267   -0.7189 O   0  0  0  0  0  0  0  0  0  0  0  0
   -1.2415    0.8266    1.2952 O   0  0  0  0  0  0  0  0  0  0  0  0
   -1.7023   -1.6832    0.1218 O   0  0  0  0  0  0  0  0  0  0  0  0
    1.2166   -1.9667   -0.7942 O   0  0  0  0  0  0  0  0  0  0  0  0
    1.5489    0.9064    1.3065 O   0  0  0  0  0  0  0  0  0  0  0  0
    0.9041    0.8768   -1.9929 H   0  0  0  0  0  0  0  0  0  0  0  0
    1.3477    2.2717   -0.9654 H   0  0  0  0  0  0  0  0  0  0  0  0
   -1.8051    0.1605    1.7179 H   0  0  0  0  0  0  0  0  0  0  0  0
   -1.4608   -2.5853   -0.1338 H   0  0  0  0  0  0  0  0  0  0  0  0
    2.0836   -2.2251   -0.4511 H   0  0  0  0  0  0  0  0  0  0  0  0
    0.6593    1.1785    1.5998 H   0  0  0  0  0  0  0  0  0  0  0  0
  1  2  1  0  0  0  0
  2  3  1  0  0  0  0
  2  4  1  0  0  0  0
  4  5  1  0  0  0  0
  4  6  1  0  0  0  0
  6  7  1  0  0  0  0
  6  8  1  0  0  0  0
  8  9  1  0  0  0  0
  1 10  1  0  0  0  0
  8 10  1  0  0  0  0
  8 11  1  0  0  0  0
  6 12  1  0  0  0  0
  4 13  1  0  0  0  0
  2 14  1  0  0  0  0
  1 15  1  0  0  0  0
  1 16  1  0  0  0  0
 11 17  1  0  0  0  0
 12 18  1  0  0  0  0
 13 19  1  0  0  0  0
 14 20  1  0  0  0  0
M  END
