 xtb: 6.7.1 (edcfbbe)
          04092507313D

 38 37  0     0  0            999 V2000
    2.4882   -3.9161   -0.5484 C   0  0  0  0  0  0  0  0  0  0  0  0
    2.8850   -3.1668    0.7136 C   0  0  0  0  0  0  0  0  0  0  0  0
    2.8987   -1.7462    0.4719 O   0  0  0  0  0  0  0  0  0  0  0  0
    1.7961   -1.0610    0.6667 C   0  0  0  0  0  0  0  0  0  0  0  0
    0.7588   -1.5374    1.0885 O   0  0  0  0  0  0  0  0  0  0  0  0
    1.9674    0.3995    0.3109 C   0  0  0  0  0  0  0  0  0  0  0  0
    0.7249    0.9007   -0.4096 C   0  0  0  0  0  0  0  0  0  0  0  0
    0.4671    0.2519   -1.2567 H   0  0  0  0  0  0  0  0  0  0  0  0
    0.8074    2.3360   -0.9075 C   0  0  0  0  0  0  0  0  0  0  0  0
    0.0749    2.7637   -1.7706 O   0  0  0  0  0  0  0  0  0  0  0  0
    1.7300    3.0261   -0.2809 O   0  0  0  0  0  0  0  0  0  0  0  0
    1.8550    4.4318   -0.5829 C   0  0  0  0  0  0  0  0  0  0  0  0
    0.8941    5.2486    0.2655 C   0  0  0  0  0  0  0  0  0  0  0  0
   -0.7467    0.8994    0.6895 S   0  0  0  0  0  0  0  0  0  0  0  0
   -1.6422   -0.9389    0.0791 P   0  0  0  0  0  0  0  0  0  0  0  0
   -0.8968   -1.8747   -1.4692 S   0  0  0  0  0  0  0  0  0  0  0  0
   -1.9029   -1.8507    1.3351 O   0  0  0  0  0  0  0  0  0  0  0  0
   -2.4417   -1.3353    2.5678 C   0  0  0  0  0  0  0  0  0  0  0  0
   -3.1560   -0.4491   -0.1923 O   0  0  0  0  0  0  0  0  0  0  0  0
   -3.4674    0.3829   -1.3093 C   0  0  0  0  0  0  0  0  0  0  0  0
    3.1708   -3.6760   -1.3586 H   0  0  0  0  0  0  0  0  0  0  0  0
    2.5167   -4.9838   -0.3585 H   0  0  0  0  0  0  0  0  0  0  0  0
    1.4790   -3.6394   -0.8502 H   0  0  0  0  0  0  0  0  0  0  0  0
    3.9053   -3.4046    1.0148 H   0  0  0  0  0  0  0  0  0  0  0  0
    2.1839   -3.3776    1.5259 H   0  0  0  0  0  0  0  0  0  0  0  0
    2.8462    0.5079   -0.3242 H   0  0  0  0  0  0  0  0  0  0  0  0
    2.1180    0.9726    1.2282 H   0  0  0  0  0  0  0  0  0  0  0  0
    2.8935    4.6667   -0.3505 H   0  0  0  0  0  0  0  0  0  0  0  0
    1.6558    4.5790   -1.6477 H   0  0  0  0  0  0  0  0  0  0  0  0
    1.0675    5.0552    1.3202 H   0  0  0  0  0  0  0  0  0  0  0  0
    1.0455    6.3037    0.0638 H   0  0  0  0  0  0  0  0  0  0  0  0
   -0.1331    4.9855    0.0235 H   0  0  0  0  0  0  0  0  0  0  0  0
   -3.4274   -0.9072    2.3941 H   0  0  0  0  0  0  0  0  0  0  0  0
   -1.7689   -0.5819    2.9768 H   0  0  0  0  0  0  0  0  0  0  0  0
   -2.5015   -2.1961    3.2286 H   0  0  0  0  0  0  0  0  0  0  0  0
   -3.1440   -0.0955   -2.2354 H   0  0  0  0  0  0  0  0  0  0  0  0
   -2.9756    1.3522   -1.2099 H   0  0  0  0  0  0  0  0  0  0  0  0
   -4.5478    0.4996   -1.2978 H   0  0  0  0  0  0  0  0  0  0  0  0
  1  2  1  0  0  0  0
  2  3  1  0  0  0  0
  3  4  4  0  0  0  0
  4  5  2  0  0  0  0
  4  6  1  0  0  0  0
  6  7  1  0  0  0  0
  7  8  1  0  0  0  0
  7  9  1  0  0  0  0
  9 10  2  0  0  0  0
  9 11  4  0  0  0  0
 11 12  1  0  0  0  0
 12 13  1  0  0  0  0
  7 14  1  0  0  0  0
 14 15  1  0  0  0  0
 15 16  2  0  0  0  0
 15 17  2  0  0  0  0
 17 18  1  0  0  0  0
 15 19  1  0  0  0  0
 19 20  1  0  0  0  0
  1 21  1  0  0  0  0
  1 22  1  0  0  0  0
  1 23  1  0  0  0  0
  2 24  1  0  0  0  0
  2 25  1  0  0  0  0
  6 26  1  0  0  0  0
  6 27  1  0  0  0  0
 12 28  1  0  0  0  0
 12 29  1  0  0  0  0
 13 30  1  0  0  0  0
 13 31  1  0  0  0  0
 13 32  1  0  0  0  0
 18 33  1  0  0  0  0
 18 34  1  0  0  0  0
 18 35  1  0  0  0  0
 20 36  1  0  0  0  0
 20 37  1  0  0  0  0
 20 38  1  0  0  0  0
M  END
