 xtb: 6.7.1 (edcfbbe)
          04092505213D

 41 40  0     0  0            999 V2000
    1.7216    1.9071   -1.1758 C   0  0  0  0  0  0  0  0  0  0  0  0
    3.0587    1.2174   -1.0096 C   0  0  0  0  0  0  0  0  0  0  0  0
    2.9128   -0.1846   -0.7343 O   0  0  0  0  0  0  0  0  0  0  0  0
    2.3857   -0.7481    0.6587 P   0  0  0  0  0  0  0  0  0  0  0  0
    2.8234    0.3712    2.2126 S   0  0  0  0  0  0  0  0  0  0  0  0
    2.9270   -2.2355    0.6173 O   0  0  0  0  0  0  0  0  0  0  0  0
    4.2658   -2.6053    0.2213 C   0  0  0  0  0  0  0  0  0  0  0  0
    5.3217   -1.9965    1.1209 C   0  0  0  0  0  0  0  0  0  0  0  0
    0.3424   -1.2733    0.4508 S   0  0  0  0  0  0  0  0  0  0  0  0
   -0.4141   -0.2225    1.7191 C   0  0  0  0  0  0  0  0  0  0  0  0
   -1.1783    1.2989    1.0800 S   0  0  0  0  0  0  0  0  0  0  0  0
   -2.3409    0.4895   -0.4990 P   0  0  0  0  0  0  0  0  0  0  0  0
   -1.5121    0.1752   -2.2522 S   0  0  0  0  0  0  0  0  0  0  0  0
   -3.6000    1.4586   -0.5640 O   0  0  0  0  0  0  0  0  0  0  0  0
   -3.6144    2.6349   -1.3891 C   0  0  0  0  0  0  0  0  0  0  0  0
   -2.6456    3.6843   -0.8835 C   0  0  0  0  0  0  0  0  0  0  0  0
   -2.9285   -0.7775    0.2467 O   0  0  0  0  0  0  0  0  0  0  0  0
   -3.4173   -1.9250   -0.4777 C   0  0  0  0  0  0  0  0  0  0  0  0
   -4.7072   -1.6152   -1.2077 C   0  0  0  0  0  0  0  0  0  0  0  0
    1.1069    1.3780   -1.9019 H   0  0  0  0  0  0  0  0  0  0  0  0
    1.1963    1.9358   -0.2212 H   0  0  0  0  0  0  0  0  0  0  0  0
    1.8788    2.9253   -1.5166 H   0  0  0  0  0  0  0  0  0  0  0  0
    3.6253    1.6754   -0.1922 H   0  0  0  0  0  0  0  0  0  0  0  0
    3.6415    1.2440   -1.9314 H   0  0  0  0  0  0  0  0  0  0  0  0
    4.2580   -3.6942    0.2937 H   0  0  0  0  0  0  0  0  0  0  0  0
    4.4137   -2.3033   -0.8179 H   0  0  0  0  0  0  0  0  0  0  0  0
    6.2994   -2.3712    0.8348 H   0  0  0  0  0  0  0  0  0  0  0  0
    5.3159   -0.9112    1.0281 H   0  0  0  0  0  0  0  0  0  0  0  0
    5.1269   -2.2536    2.1595 H   0  0  0  0  0  0  0  0  0  0  0  0
    0.3575    0.1031    2.4220 H   0  0  0  0  0  0  0  0  0  0  0  0
   -1.1771   -0.8156    2.2152 H   0  0  0  0  0  0  0  0  0  0  0  0
   -3.3634    2.3420   -2.4141 H   0  0  0  0  0  0  0  0  0  0  0  0
   -4.6481    2.9793   -1.3418 H   0  0  0  0  0  0  0  0  0  0  0  0
   -1.6248    3.3094   -0.9609 H   0  0  0  0  0  0  0  0  0  0  0  0
   -2.7386    4.5840   -1.4831 H   0  0  0  0  0  0  0  0  0  0  0  0
   -2.8500    3.9183    0.1580 H   0  0  0  0  0  0  0  0  0  0  0  0
   -2.6403   -2.2496   -1.1775 H   0  0  0  0  0  0  0  0  0  0  0  0
   -3.5580   -2.6827    0.2941 H   0  0  0  0  0  0  0  0  0  0  0  0
   -4.5203   -0.8820   -1.9914 H   0  0  0  0  0  0  0  0  0  0  0  0
   -5.0935   -2.5238   -1.6588 H   0  0  0  0  0  0  0  0  0  0  0  0
   -5.4417   -1.2109   -0.5163 H   0  0  0  0  0  0  0  0  0  0  0  0
  1  2  1  0  0  0  0
  2  3  1  0  0  0  0
  3  4  2  0  0  0  0
  4  5  2  0  0  0  0
  4  6  2  0  0  0  0
  6  7  1  0  0  0  0
  7  8  1  0  0  0  0
  4  9  1  0  0  0  0
  9 10  1  0  0  0  0
 10 11  1  0  0  0  0
 11 12  1  0  0  0  0
 12 13  2  0  0  0  0
 12 14  2  0  0  0  0
 14 15  1  0  0  0  0
 15 16  1  0  0  0  0
 12 17  2  0  0  0  0
 17 18  1  0  0  0  0
 18 19  1  0  0  0  0
  1 20  1  0  0  0  0
  1 21  1  0  0  0  0
  1 22  1  0  0  0  0
  2 23  1  0  0  0  0
  2 24  1  0  0  0  0
  7 25  1  0  0  0  0
  7 26  1  0  0  0  0
  8 27  1  0  0  0  0
  8 28  1  0  0  0  0
  8 29  1  0  0  0  0
 10 30  1  0  0  0  0
 10 31  1  0  0  0  0
 15 32  1  0  0  0  0
 15 33  1  0  0  0  0
 16 34  1  0  0  0  0
 16 35  1  0  0  0  0
 16 36  1  0  0  0  0
 18 37  1  0  0  0  0
 18 38  1  0  0  0  0
 19 39  1  0  0  0  0
 19 40  1  0  0  0  0
 19 41  1  0  0  0  0
M  END
