 xtb: 6.7.1 (edcfbbe)
          04032519543D

 10  9  0     0  0            999 V2000
   -1.2548   -0.3048    0.0179 C   0  0  0  0  0  0  0  0  0  0  0  0
   -0.0089    0.5721    0.0179 C   0  0  0  0  0  0  0  0  0  0  0  0
    1.1910   -0.2565    0.0179 N   0  0  0  0  0  0  0  0  0  0  0  0
   -2.1467    0.3117    0.0853 H   0  0  0  0  0  0  0  0  0  0  0  0
   -1.3044   -0.8928   -0.8959 H   0  0  0  0  0  0  0  0  0  0  0  0
   -1.2264   -0.9839    0.8648 H   0  0  0  0  0  0  0  0  0  0  0  0
    0.0131    1.1772    0.9287 H   0  0  0  0  0  0  0  0  0  0  0  0
   -0.0532    1.2631   -0.8426 H   0  0  0  0  0  0  0  0  0  0  0  0
    1.2085   -0.8271   -0.8212 H   0  0  0  0  0  0  0  0  0  0  0  0
    2.0169    0.3309    0.0060 H   0  0  0  0  0  0  0  0  0  0  0  0
  1  2  1  0  0  0  0
  2  3  1  0  0  0  0
  1  4  1  0  0  0  0
  1  5  1  0  0  0  0
  1  6  1  0  0  0  0
  2  7  1  0  0  0  0
  2  8  1  0  0  0  0
  3  9  1  0  0  0  0
  3 10  1  0  0  0  0
M  END
