41
 xtb: 6.7.1 (edcfbbe)
C            2.03837226175665       -2.63785048593953        2.37293324339687
C            1.27780408624913       -1.71949471562196        1.45000104774234
O            2.19722758022064       -0.69679698671913        0.92892021148445
P            2.60387305890476       -0.67140836361432       -0.62826577503216
S            3.14186248686703       -2.35988940209919       -1.43593585117093
O            3.65814799803238        0.53772427148614       -0.62367822053176
C            5.09421403050528        0.30322974837503       -0.38149229305633
C            5.38091753670679       -0.04480828166636        1.05807336602778
S            0.97042912345447        0.12166251251854       -1.69191002494238
C            0.61774914504012        1.69077451694223       -0.78804949444729
S           -0.33007837025497        1.57096302403981        0.77981031630880
P           -2.16233242262384        0.77601951477696        0.08362727049405
S           -2.73972704410135        1.38875056005597       -1.67320264240140
O           -3.12074592136616        1.08988510863035        1.33828446872394
C           -3.75007415338588        2.41067470654431        1.50473436205329
C           -5.24263276635218        2.26269792679954        1.35520151191160
O           -1.94369287136354       -0.80330015913236        0.26935875480606
C           -2.77536743865737       -1.78705011816097       -0.44361047410205
C           -4.16900049769570       -1.86445095923608        0.12898284983386
H            1.34089521994272       -3.35593781247682        2.81624797225257
H            2.80937936898588       -3.19174994478958        1.82999299774241
H            2.50844949221975       -2.07066528553481        3.18165718201459
H            0.49800127716187       -1.16355600793568        1.97512425431546
H            0.82191242616818       -2.26471248783881        0.61710972634741
H            5.43009744147203       -0.47918823506413       -1.06896062677381
H            5.55417742754473        1.25087250881341       -0.66705494913287
H            4.95838832548399       -1.01569520864147        1.33304291295754
H            6.46676828903988       -0.09691565955866        1.18991866466996
H            4.98752440071343        0.72034504585483        1.73326994405612
H            0.05817635871121        2.30912997577898       -1.49535001527330
H            1.55268823466895        2.19761532967728       -0.53511462763688
H           -3.46760531132617        2.74178054189846        2.50694160396418
H           -3.33684424395970        3.10941330104942        0.77101711398760
H           -5.63604214970441        1.54082235662635        2.07662450945219
H           -5.71827204787297        3.23109137101433        1.54113547691220
H           -5.50309163077214        1.93607855332236        0.34441189058390
H           -2.77961652677000       -1.52516686923149       -1.50603824005196
H           -2.22958368667904       -2.72292786956832       -0.30896664432929
H           -4.72493832558485       -0.93591209710341       -0.03343964464919
H           -4.70785735668888       -2.67460441263401       -0.37332577097497
H           -4.14076660969931       -2.08060566387288        1.20067109953710
