 xtb: 6.7.1 (edcfbbe)
          04092507313D

 38 37  0     0  0            999 V2000
    5.8411   -2.9469   -0.7407 C   0  0  0  0  0  0  0  0  0  0  0  0
    4.7616   -2.0908   -1.3742 C   0  0  0  0  0  0  0  0  0  0  0  0
    3.5572   -2.2404   -0.5951 O   0  0  0  0  0  0  0  0  0  0  0  0
    2.6301   -1.3139   -0.6855 C   0  0  0  0  0  0  0  0  0  0  0  0
    2.7046   -0.3346   -1.4012 O   0  0  0  0  0  0  0  0  0  0  0  0
    1.4562   -1.6025    0.2264 C   0  0  0  0  0  0  0  0  0  0  0  0
    0.3311   -0.6440   -0.1131 C   0  0  0  0  0  0  0  0  0  0  0  0
   -0.0716   -0.8212   -1.1162 H   0  0  0  0  0  0  0  0  0  0  0  0
    0.7263    0.8147   -0.0189 C   0  0  0  0  0  0  0  0  0  0  0  0
    0.1646    1.6765   -0.6634 O   0  0  0  0  0  0  0  0  0  0  0  0
    1.6478    1.0340    0.8912 O   0  0  0  0  0  0  0  0  0  0  0  0
    2.0598    2.3960    1.1248 C   0  0  0  0  0  0  0  0  0  0  0  0
    1.0624    3.1304    2.0059 C   0  0  0  0  0  0  0  0  0  0  0  0
   -1.0574   -0.7929    1.0607 S   0  0  0  0  0  0  0  0  0  0  0  0
   -2.4713    0.3509   -0.0512 P   0  0  0  0  0  0  0  0  0  0  0  0
   -2.4072    0.1587   -1.9954 S   0  0  0  0  0  0  0  0  0  0  0  0
   -3.8437   -0.1351    0.6078 O   0  0  0  0  0  0  0  0  0  0  0  0
   -4.3640   -1.4451    0.3496 C   0  0  0  0  0  0  0  0  0  0  0  0
   -2.4157    1.8375    0.4849 O   0  0  0  0  0  0  0  0  0  0  0  0
   -2.6956    2.1480    1.8668 C   0  0  0  0  0  0  0  0  0  0  0  0
    6.7508   -2.8662   -1.3263 H   0  0  0  0  0  0  0  0  0  0  0  0
    6.0374   -2.6136    0.2739 H   0  0  0  0  0  0  0  0  0  0  0  0
    5.5219   -3.9841   -0.7141 H   0  0  0  0  0  0  0  0  0  0  0  0
    4.5425   -2.4112   -2.3970 H   0  0  0  0  0  0  0  0  0  0  0  0
    5.0326   -1.0307   -1.3939 H   0  0  0  0  0  0  0  0  0  0  0  0
    1.7807   -1.4612    1.2593 H   0  0  0  0  0  0  0  0  0  0  0  0
    1.1404   -2.6381    0.1049 H   0  0  0  0  0  0  0  0  0  0  0  0
    3.0303    2.2973    1.6107 H   0  0  0  0  0  0  0  0  0  0  0  0
    2.1664    2.8936    0.1568 H   0  0  0  0  0  0  0  0  0  0  0  0
    0.1136    3.2293    1.4833 H   0  0  0  0  0  0  0  0  0  0  0  0
    0.9088    2.5854    2.9333 H   0  0  0  0  0  0  0  0  0  0  0  0
    1.4454    4.1206    2.2290 H   0  0  0  0  0  0  0  0  0  0  0  0
   -3.7959   -2.1836    0.9141 H   0  0  0  0  0  0  0  0  0  0  0  0
   -4.3093   -1.6655   -0.7175 H   0  0  0  0  0  0  0  0  0  0  0  0
   -5.3988   -1.4190    0.6807 H   0  0  0  0  0  0  0  0  0  0  0  0
   -3.7499    1.9765    2.0732 H   0  0  0  0  0  0  0  0  0  0  0  0
   -2.4460    3.2000    1.9795 H   0  0  0  0  0  0  0  0  0  0  0  0
   -2.0816    1.5288    2.5217 H   0  0  0  0  0  0  0  0  0  0  0  0
  1  2  1  0  0  0  0
  2  3  1  0  0  0  0
  3  4  4  0  0  0  0
  4  5  2  0  0  0  0
  4  6  1  0  0  0  0
  6  7  1  0  0  0  0
  7  8  1  0  0  0  0
  7  9  1  0  0  0  0
  9 10  2  0  0  0  0
  9 11  1  0  0  0  0
 11 12  1  0  0  0  0
 12 13  1  0  0  0  0
  7 14  1  0  0  0  0
 14 15  1  0  0  0  0
 15 16  2  0  0  0  0
 15 17  2  0  0  0  0
 17 18  1  0  0  0  0
 15 19  2  0  0  0  0
 19 20  1  0  0  0  0
  1 21  1  0  0  0  0
  1 22  1  0  0  0  0
  1 23  1  0  0  0  0
  2 24  1  0  0  0  0
  2 25  1  0  0  0  0
  6 26  1  0  0  0  0
  6 27  1  0  0  0  0
 12 28  1  0  0  0  0
 12 29  1  0  0  0  0
 13 30  1  0  0  0  0
 13 31  1  0  0  0  0
 13 32  1  0  0  0  0
 18 33  1  0  0  0  0
 18 34  1  0  0  0  0
 18 35  1  0  0  0  0
 20 36  1  0  0  0  0
 20 37  1  0  0  0  0
 20 38  1  0  0  0  0
M  END
