 xtb: 6.7.1 (edcfbbe)
          04092505203D

 41 40  0     0  0            999 V2000
    4.2204   -0.7863   -2.5911 C   0  0  0  0  0  0  0  0  0  0  0  0
    4.4620   -1.3804   -1.2187 C   0  0  0  0  0  0  0  0  0  0  0  0
    3.2324   -1.6144   -0.5103 O   0  0  0  0  0  0  0  0  0  0  0  0
    2.3236   -0.4262    0.0312 P   0  0  0  0  0  0  0  0  0  0  0  0
    3.3392    1.0977    0.7411 S   0  0  0  0  0  0  0  0  0  0  0  0
    1.3779   -1.2030    1.0375 O   0  0  0  0  0  0  0  0  0  0  0  0
    1.7988   -1.5261    2.3858 C   0  0  0  0  0  0  0  0  0  0  0  0
    1.3235   -0.4723    3.3664 C   0  0  0  0  0  0  0  0  0  0  0  0
    0.9412   -0.0258   -1.5108 S   0  0  0  0  0  0  0  0  0  0  0  0
    0.3137    1.5229   -0.8010 C   0  0  0  0  0  0  0  0  0  0  0  0
   -0.7313    1.2659    0.6493 S   0  0  0  0  0  0  0  0  0  0  0  0
   -2.3347    0.3173   -0.3970 P   0  0  0  0  0  0  0  0  0  0  0  0
   -2.7126    1.0018   -2.1870 S   0  0  0  0  0  0  0  0  0  0  0  0
   -3.5387    0.3703    0.6404 O   0  0  0  0  0  0  0  0  0  0  0  0
   -4.4525    1.4809    0.7107 C   0  0  0  0  0  0  0  0  0  0  0  0
   -3.7807    2.7552    1.1785 C   0  0  0  0  0  0  0  0  0  0  0  0
   -1.9689   -1.2170   -0.4203 O   0  0  0  0  0  0  0  0  0  0  0  0
   -1.7425   -2.0090    0.7698 C   0  0  0  0  0  0  0  0  0  0  0  0
   -2.9882   -2.7854    1.1430 C   0  0  0  0  0  0  0  0  0  0  0  0
    3.5177   -1.3990   -3.1505 H   0  0  0  0  0  0  0  0  0  0  0  0
    3.8079    0.2175   -2.4948 H   0  0  0  0  0  0  0  0  0  0  0  0
    5.1604   -0.7304   -3.1307 H   0  0  0  0  0  0  0  0  0  0  0  0
    5.0869   -0.7135   -0.6157 H   0  0  0  0  0  0  0  0  0  0  0  0
    4.9217   -2.3676   -1.2805 H   0  0  0  0  0  0  0  0  0  0  0  0
    1.3431   -2.4967    2.5884 H   0  0  0  0  0  0  0  0  0  0  0  0
    2.8877   -1.6200    2.4092 H   0  0  0  0  0  0  0  0  0  0  0  0
    0.2464   -0.3486    3.2981 H   0  0  0  0  0  0  0  0  0  0  0  0
    1.5886   -0.7774    4.3735 H   0  0  0  0  0  0  0  0  0  0  0  0
    1.7932    0.4845    3.1498 H   0  0  0  0  0  0  0  0  0  0  0  0
   -0.2686    2.0069   -1.5851 H   0  0  0  0  0  0  0  0  0  0  0  0
    1.1518    2.1431   -0.4825 H   0  0  0  0  0  0  0  0  0  0  0  0
   -4.8975    1.6217   -0.2789 H   0  0  0  0  0  0  0  0  0  0  0  0
   -5.2138    1.1454    1.4164 H   0  0  0  0  0  0  0  0  0  0  0  0
   -4.5362    3.5166    1.3438 H   0  0  0  0  0  0  0  0  0  0  0  0
   -3.2351    2.5807    2.1025 H   0  0  0  0  0  0  0  0  0  0  0  0
   -3.0841    3.1102    0.4207 H   0  0  0  0  0  0  0  0  0  0  0  0
   -0.9186   -2.6739    0.5021 H   0  0  0  0  0  0  0  0  0  0  0  0
   -1.4285   -1.3467    1.5811 H   0  0  0  0  0  0  0  0  0  0  0  0
   -3.3102   -3.3951    0.3034 H   0  0  0  0  0  0  0  0  0  0  0  0
   -2.7662   -3.4278    1.9894 H   0  0  0  0  0  0  0  0  0  0  0  0
   -3.7907   -2.1031    1.4095 H   0  0  0  0  0  0  0  0  0  0  0  0
  1  2  1  0  0  0  0
  2  3  1  0  0  0  0
  3  4  2  0  0  0  0
  4  5  2  0  0  0  0
  4  6  2  0  0  0  0
  6  7  1  0  0  0  0
  7  8  1  0  0  0  0
  4  9  1  0  0  0  0
  9 10  1  0  0  0  0
 10 11  1  0  0  0  0
 11 12  1  0  0  0  0
 12 13  2  0  0  0  0
 12 14  2  0  0  0  0
 14 15  1  0  0  0  0
 15 16  1  0  0  0  0
 12 17  2  0  0  0  0
 17 18  1  0  0  0  0
 18 19  1  0  0  0  0
  1 20  1  0  0  0  0
  1 21  1  0  0  0  0
  1 22  1  0  0  0  0
  2 23  1  0  0  0  0
  2 24  1  0  0  0  0
  7 25  1  0  0  0  0
  7 26  1  0  0  0  0
  8 27  1  0  0  0  0
  8 28  1  0  0  0  0
  8 29  1  0  0  0  0
 10 30  1  0  0  0  0
 10 31  1  0  0  0  0
 15 32  1  0  0  0  0
 15 33  1  0  0  0  0
 16 34  1  0  0  0  0
 16 35  1  0  0  0  0
 16 36  1  0  0  0  0
 18 37  1  0  0  0  0
 18 38  1  0  0  0  0
 19 39  1  0  0  0  0
 19 40  1  0  0  0  0
 19 41  1  0  0  0  0
M  END
