 xtb: 6.7.1 (edcfbbe)
          04092505213D

 41 40  0     0  0            999 V2000
    3.1349    1.5280   -2.0924 C   0  0  0  0  0  0  0  0  0  0  0  0
    3.9368    0.4507   -1.3932 C   0  0  0  0  0  0  0  0  0  0  0  0
    3.5241    0.2311   -0.0313 O   0  0  0  0  0  0  0  0  0  0  0  0
    2.0260    0.0333    0.4598 P   0  0  0  0  0  0  0  0  0  0  0  0
    1.0090    1.6911    0.6930 S   0  0  0  0  0  0  0  0  0  0  0  0
    2.1987   -0.6506    1.8666 O   0  0  0  0  0  0  0  0  0  0  0  0
    3.0201   -1.8201    2.1128 C   0  0  0  0  0  0  0  0  0  0  0  0
    4.3665   -1.4117    2.6750 C   0  0  0  0  0  0  0  0  0  0  0  0
    1.4076   -1.5199   -0.8778 S   0  0  0  0  0  0  0  0  0  0  0  0
   -0.0923   -2.1783   -0.0630 C   0  0  0  0  0  0  0  0  0  0  0  0
   -0.9734   -1.0133    0.9999 S   0  0  0  0  0  0  0  0  0  0  0  0
   -1.9810    0.0530   -0.5621 P   0  0  0  0  0  0  0  0  0  0  0  0
   -0.9911    0.6031   -2.1501 S   0  0  0  0  0  0  0  0  0  0  0  0
   -2.7498    1.1864    0.2346 O   0  0  0  0  0  0  0  0  0  0  0  0
   -2.2652    2.5253    0.4446 C   0  0  0  0  0  0  0  0  0  0  0  0
   -3.4590    3.4579    0.4567 C   0  0  0  0  0  0  0  0  0  0  0  0
   -3.1269   -0.9513   -0.9719 O   0  0  0  0  0  0  0  0  0  0  0  0
   -4.1294   -1.4701   -0.0628 C   0  0  0  0  0  0  0  0  0  0  0  0
   -5.3884   -0.6289   -0.1083 C   0  0  0  0  0  0  0  0  0  0  0  0
    2.0910    1.2260   -2.1887 H   0  0  0  0  0  0  0  0  0  0  0  0
    3.1708    2.4571   -1.5278 H   0  0  0  0  0  0  0  0  0  0  0  0
    3.5407    1.6932   -3.0852 H   0  0  0  0  0  0  0  0  0  0  0  0
    4.9866    0.7352   -1.3009 H   0  0  0  0  0  0  0  0  0  0  0  0
    3.8532   -0.4990   -1.9291 H   0  0  0  0  0  0  0  0  0  0  0  0
    2.4495   -2.4071    2.8349 H   0  0  0  0  0  0  0  0  0  0  0  0
    3.1359   -2.3795    1.1803 H   0  0  0  0  0  0  0  0  0  0  0  0
    4.2294   -0.8288    3.5816 H   0  0  0  0  0  0  0  0  0  0  0  0
    4.9420   -2.3033    2.9036 H   0  0  0  0  0  0  0  0  0  0  0  0
    4.9084   -0.8081    1.9517 H   0  0  0  0  0  0  0  0  0  0  0  0
    0.1975   -3.0138    0.5700 H   0  0  0  0  0  0  0  0  0  0  0  0
   -0.7472   -2.5062   -0.8701 H   0  0  0  0  0  0  0  0  0  0  0  0
   -1.7251    2.5445    1.3945 H   0  0  0  0  0  0  0  0  0  0  0  0
   -1.5622    2.7793   -0.3552 H   0  0  0  0  0  0  0  0  0  0  0  0
   -3.1111    4.4701    0.6336 H   0  0  0  0  0  0  0  0  0  0  0  0
   -3.9742    3.4177   -0.4993 H   0  0  0  0  0  0  0  0  0  0  0  0
   -4.1479    3.1716    1.2462 H   0  0  0  0  0  0  0  0  0  0  0  0
   -4.3176   -2.4839   -0.4209 H   0  0  0  0  0  0  0  0  0  0  0  0
   -3.7101   -1.5032    0.9466 H   0  0  0  0  0  0  0  0  0  0  0  0
   -5.7519   -0.5589   -1.1299 H   0  0  0  0  0  0  0  0  0  0  0  0
   -6.1479   -1.0945    0.5121 H   0  0  0  0  0  0  0  0  0  0  0  0
   -5.1875    0.3727    0.2619 H   0  0  0  0  0  0  0  0  0  0  0  0
  1  2  1  0  0  0  0
  2  3  1  0  0  0  0
  3  4  2  0  0  0  0
  4  5  2  0  0  0  0
  4  6  2  0  0  0  0
  6  7  1  0  0  0  0
  7  8  1  0  0  0  0
  4  9  1  0  0  0  0
  9 10  1  0  0  0  0
 10 11  1  0  0  0  0
 11 12  1  0  0  0  0
 12 13  2  0  0  0  0
 12 14  2  0  0  0  0
 14 15  1  0  0  0  0
 15 16  1  0  0  0  0
 12 17  2  0  0  0  0
 17 18  1  0  0  0  0
 18 19  1  0  0  0  0
  1 20  1  0  0  0  0
  1 21  1  0  0  0  0
  1 22  1  0  0  0  0
  2 23  1  0  0  0  0
  2 24  1  0  0  0  0
  7 25  1  0  0  0  0
  7 26  1  0  0  0  0
  8 27  1  0  0  0  0
  8 28  1  0  0  0  0
  8 29  1  0  0  0  0
 10 30  1  0  0  0  0
 10 31  1  0  0  0  0
 15 32  1  0  0  0  0
 15 33  1  0  0  0  0
 16 34  1  0  0  0  0
 16 35  1  0  0  0  0
 16 36  1  0  0  0  0
 18 37  1  0  0  0  0
 18 38  1  0  0  0  0
 19 39  1  0  0  0  0
 19 40  1  0  0  0  0
 19 41  1  0  0  0  0
M  END
