41
 xtb: 6.7.1 (edcfbbe)
C            5.26595117329536       -1.66164412452824        0.23579771060254
C            4.79049794132217       -1.37512857317310       -1.16666967648647
O            3.32556703026042       -1.22617006891023       -1.23310511681698
P            2.58565252365113        0.09966444312765       -0.70092140347426
S            3.45979413001610        1.82151829358162       -0.93495074569745
O            2.26130719113227       -0.13443780823625        0.85748896094764
C            1.69599406639653       -1.40612373468183        1.33812383520394
C            1.14340866382078       -1.15637260641624        2.71687842464720
S            0.79775949476919       -0.21280078581332       -1.80764121978821
C           -0.05483636646912        1.37781548869698       -1.47649554376212
S           -0.73648415087992        1.64086161087404        0.20771051365085
P           -2.42468651242681        0.36613371338156        0.16994516695945
S           -3.44961251476786        0.33774627301914       -1.48688070362266
O           -3.19974072986500        0.81853606094625        1.50643731963104
C           -4.33853249934010        1.74872812149345        1.50152693870504
C           -3.89480294812956        3.18465306337807        1.37720228533093
O           -1.77823725210576       -1.02740159774221        0.64196546571435
C           -2.61253089029678       -2.24033541213057        0.71204784498359
C           -1.68408174589105       -3.40750935668744        0.92294433611308
H            4.79610375120819       -2.56472233527946        0.63471514267440
H            6.34882086491724       -1.82195446022524        0.20682500954838
H            5.06545173594701       -0.82386286400137        0.91044388620511
H            4.99125880236973       -2.21046374892304       -1.83994988159329
H            5.24240333404272       -0.46756484690895       -1.57785127106992
H            0.91721920856124       -1.73296177564716        0.64160342239406
H            2.50329909284670       -2.14377747498032        1.34851063712908
H            1.92698655261184       -0.79669849800758        3.39008011266019
H            0.33194423623126       -0.42377047583030        2.68902545085398
H            0.75051343184465       -2.09560768035383        3.11792429391454
H           -0.86822933162516        1.43423878585729       -2.20656889268533
H            0.64038199792787        2.20541260265850       -1.64840221118581
H           -5.01599166433210        1.45671519376367        0.69380427279973
H           -4.82399292462516        1.55932738782829        2.46095010710200
H           -4.77162279853392        3.82996517946481        1.49421901377118
H           -3.17203886033284        3.44177068901770        2.15706704761430
H           -3.45240198261555        3.38778063430812        0.39784667930078
H           -3.31440695888254       -2.11757435868066        1.54301772475257
H           -3.17017264628463       -2.33193310983422       -0.22513953972621
H           -1.11166436757546       -3.29433291136972        1.84790321429143
H           -2.28011210285653       -4.32249277389017        0.99557663679884
H           -0.99212650733852       -3.51225486440510        0.08227230012909
