 xtb: 6.7.1 (edcfbbe)
          04092507313D

 38 37  0     0  0            999 V2000
    2.1083   -3.4638   -2.5440 C   0  0  0  0  0  0  0  0  0  0  0  0
    2.9721   -3.2460   -1.3116 C   0  0  0  0  0  0  0  0  0  0  0  0
    2.8736   -1.8771   -0.8716 O   0  0  0  0  0  0  0  0  0  0  0  0
    1.9546   -1.5651    0.0159 C   0  0  0  0  0  0  0  0  0  0  0  0
    1.2206   -2.3588    0.5646 O   0  0  0  0  0  0  0  0  0  0  0  0
    1.8831   -0.0673    0.2379 C   0  0  0  0  0  0  0  0  0  0  0  0
    1.0001    0.5384   -0.8583 C   0  0  0  0  0  0  0  0  0  0  0  0
    1.5483    0.5739   -1.8041 H   0  0  0  0  0  0  0  0  0  0  0  0
    0.5230    1.9438   -0.5108 C   0  0  0  0  0  0  0  0  0  0  0  0
   -0.6375    2.2798   -0.6053 O   0  0  0  0  0  0  0  0  0  0  0  0
    1.5180    2.7058   -0.1455 O   0  0  0  0  0  0  0  0  0  0  0  0
    1.2366    4.0557    0.2840 C   0  0  0  0  0  0  0  0  0  0  0  0
    1.1421    4.1119    1.7995 C   0  0  0  0  0  0  0  0  0  0  0  0
   -0.4709   -0.4670   -1.2419 S   0  0  0  0  0  0  0  0  0  0  0  0
   -1.5863   -0.2451    0.5559 P   0  0  0  0  0  0  0  0  0  0  0  0
   -0.9758    0.8263    2.0752 S   0  0  0  0  0  0  0  0  0  0  0  0
   -3.0591    0.0909    0.0266 O   0  0  0  0  0  0  0  0  0  0  0  0
   -3.4727    1.3609   -0.4818 C   0  0  0  0  0  0  0  0  0  0  0  0
   -1.8256   -1.7210    1.0670 O   0  0  0  0  0  0  0  0  0  0  0  0
   -2.0848   -2.8441    0.2071 C   0  0  0  0  0  0  0  0  0  0  0  0
    2.4293   -2.8074   -3.3476 H   0  0  0  0  0  0  0  0  0  0  0  0
    2.1958   -4.4957   -2.8670 H   0  0  0  0  0  0  0  0  0  0  0  0
    1.0665   -3.2494   -2.3143 H   0  0  0  0  0  0  0  0  0  0  0  0
    4.0292   -3.3929   -1.5334 H   0  0  0  0  0  0  0  0  0  0  0  0
    2.6601   -3.8995   -0.4923 H   0  0  0  0  0  0  0  0  0  0  0  0
    2.8766    0.3739    0.1783 H   0  0  0  0  0  0  0  0  0  0  0  0
    1.4463    0.1168    1.2213 H   0  0  0  0  0  0  0  0  0  0  0  0
    2.0761    4.6446   -0.0862 H   0  0  0  0  0  0  0  0  0  0  0  0
    0.3025    4.3822   -0.1801 H   0  0  0  0  0  0  0  0  0  0  0  0
    0.3470    3.4562    2.1515 H   0  0  0  0  0  0  0  0  0  0  0  0
    2.0778    3.7911    2.2475 H   0  0  0  0  0  0  0  0  0  0  0  0
    0.9253    5.1287    2.1088 H   0  0  0  0  0  0  0  0  0  0  0  0
   -3.1700    2.1567    0.1984 H   0  0  0  0  0  0  0  0  0  0  0  0
   -4.5560    1.3038   -0.5524 H   0  0  0  0  0  0  0  0  0  0  0  0
   -3.0253    1.5358   -1.4594 H   0  0  0  0  0  0  0  0  0  0  0  0
   -2.7141   -3.5169    0.7841 H   0  0  0  0  0  0  0  0  0  0  0  0
   -1.1328   -3.3192   -0.0282 H   0  0  0  0  0  0  0  0  0  0  0  0
   -2.5929   -2.5280   -0.7023 H   0  0  0  0  0  0  0  0  0  0  0  0
  1  2  1  0  0  0  0
  2  3  1  0  0  0  0
  3  4  4  0  0  0  0
  4  5  2  0  0  0  0
  4  6  1  0  0  0  0
  6  7  1  0  0  0  0
  7  8  1  0  0  0  0
  7  9  1  0  0  0  0
  9 10  2  0  0  0  0
  9 11  4  0  0  0  0
 11 12  1  0  0  0  0
 12 13  1  0  0  0  0
  7 14  1  0  0  0  0
 14 15  1  0  0  0  0
 15 16  2  0  0  0  0
 15 17  1  0  0  0  0
 17 18  1  0  0  0  0
 15 19  2  0  0  0  0
 19 20  1  0  0  0  0
  1 21  1  0  0  0  0
  1 22  1  0  0  0  0
  1 23  1  0  0  0  0
  2 24  1  0  0  0  0
  2 25  1  0  0  0  0
  6 26  1  0  0  0  0
  6 27  1  0  0  0  0
 12 28  1  0  0  0  0
 12 29  1  0  0  0  0
 13 30  1  0  0  0  0
 13 31  1  0  0  0  0
 13 32  1  0  0  0  0
 18 33  1  0  0  0  0
 18 34  1  0  0  0  0
 18 35  1  0  0  0  0
 20 36  1  0  0  0  0
 20 37  1  0  0  0  0
 20 38  1  0  0  0  0
M  END
