38
 xtb: 6.7.1 (edcfbbe)
C            2.87291090300887       -4.46052685537509       -1.27513296433889
C            3.89243909936222       -3.34815103582564       -1.20698028915413
O            3.45956533940473       -2.30909525745667       -0.26520658408058
C            2.60317085377221       -1.39036999142370       -0.73019796750739
O            2.17509860453880       -1.35751811850854       -1.86914307636017
C            2.28441028436653       -0.36408298797165        0.33147299916050
C            0.90819051164211        0.27345665203667        0.12152953851362
H            0.81073064592070        0.59925857926607       -0.91689111186386
C            0.76349803184453        1.48364642069294        1.03458397662027
O            0.22563307442854        1.49524347002147        2.12394038930168
O            1.36057436141307        2.53712805046349        0.47152067242113
C            1.37842319646407        3.77355144668560        1.26439980694284
C            2.12221536537259        4.80433823018442        0.45730918004482
S           -0.37494583618910       -1.01045353497349        0.44967887727339
P           -2.14559244896784        0.05346844951521       -0.03914701548930
S           -1.95009111652525        1.41637342383924       -1.40692498056141
O           -3.15988162150480       -1.17062726070556       -0.30166348449600
C           -3.08233425199091       -1.93342263721387       -1.53964600924353
O           -2.75889056698927        0.67094003892073        1.30773894386685
C           -2.94083786123051       -0.13955511549606        2.50671002955839
H            2.71146117815290       -4.89948174615847       -0.28644761135939
H            1.91724091313595       -4.10282737092064       -1.66751490597505
H            3.24703880605009       -5.24383828412147       -1.94184683184832
H            4.06949741778028       -2.88510513361890       -2.18061059696259
H            4.84056219520886       -3.69477664172560       -0.79278479545293
H            3.04623773948912        0.42117526920943        0.23599206730449
H            2.38722640820728       -0.79583465142361        1.33004688228771
H            0.34143382737204        4.06476670633621        1.45432613944074
H            1.87172855701505        3.55741557639349        2.21618250061288
H            2.14675814740907        5.74230825014735        1.01967286684600
H            3.15244352034580        4.48918111242509        0.26952374381432
H            1.62483599829288        4.99000245002303       -0.49873882813335
H           -2.08945615286305       -2.37674765707501       -1.65534952383633
H           -3.31315040904458       -1.28593399709230       -2.38905729282769
H           -3.83318116954371       -2.71776445892476       -1.44657565304667
H           -3.32835917564602        0.54471309445929        3.26112622473520
H           -1.98154844202225       -0.55059450825348        2.83187554831545
H           -3.65965458797692       -0.93956868645154        2.31612872434795
