 xtb: 6.7.1 (edcfbbe)
          04092505203D

 41 40  0     0  0            999 V2000
    2.9679   -2.4400    1.8358 C   0  0  0  0  0  0  0  0  0  0  0  0
    1.6449   -2.0661    1.1986 C   0  0  0  0  0  0  0  0  0  0  0  0
    1.5722   -0.6502    0.9636 O   0  0  0  0  0  0  0  0  0  0  0  0
    2.2519    0.0583   -0.2988 P   0  0  0  0  0  0  0  0  0  0  0  0
    2.8843   -1.1188   -1.7220 S   0  0  0  0  0  0  0  0  0  0  0  0
    3.4313    0.9318    0.2924 O   0  0  0  0  0  0  0  0  0  0  0  0
    3.3207    1.7744    1.4672 C   0  0  0  0  0  0  0  0  0  0  0  0
    3.0452    3.2136    1.0810 C   0  0  0  0  0  0  0  0  0  0  0  0
    0.7483    1.4574   -0.8310 S   0  0  0  0  0  0  0  0  0  0  0  0
   -0.1368    0.3804   -1.9837 C   0  0  0  0  0  0  0  0  0  0  0  0
   -0.8093   -1.1161   -1.2101 S   0  0  0  0  0  0  0  0  0  0  0  0
   -2.2200   -0.1397    0.0140 P   0  0  0  0  0  0  0  0  0  0  0  0
   -3.1084    1.4557   -0.7090 S   0  0  0  0  0  0  0  0  0  0  0  0
   -1.3508    0.0702    1.3183 O   0  0  0  0  0  0  0  0  0  0  0  0
   -1.7366    0.9814    2.3736 C   0  0  0  0  0  0  0  0  0  0  0  0
   -0.4931    1.6825    2.8809 C   0  0  0  0  0  0  0  0  0  0  0  0
   -3.2157   -1.2867    0.4893 O   0  0  0  0  0  0  0  0  0  0  0  0
   -4.4161   -1.6147   -0.2321 C   0  0  0  0  0  0  0  0  0  0  0  0
   -4.1175   -2.2460   -1.5765 C   0  0  0  0  0  0  0  0  0  0  0  0
    3.1070   -1.9019    2.7696 H   0  0  0  0  0  0  0  0  0  0  0  0
    2.9856   -3.5079    2.0288 H   0  0  0  0  0  0  0  0  0  0  0  0
    3.7827   -2.1891    1.1572 H   0  0  0  0  0  0  0  0  0  0  0  0
    0.7975   -2.2758    1.8536 H   0  0  0  0  0  0  0  0  0  0  0  0
    1.5112   -2.5911    0.2472 H   0  0  0  0  0  0  0  0  0  0  0  0
    2.5367    1.3783    2.1156 H   0  0  0  0  0  0  0  0  0  0  0  0
    4.2919    1.6775    1.9555 H   0  0  0  0  0  0  0  0  0  0  0  0
    3.0455    3.8268    1.9767 H   0  0  0  0  0  0  0  0  0  0  0  0
    3.8136    3.5703    0.4008 H   0  0  0  0  0  0  0  0  0  0  0  0
    2.0789    3.3018    0.5881 H   0  0  0  0  0  0  0  0  0  0  0  0
    0.5469    0.0410   -2.7612 H   0  0  0  0  0  0  0  0  0  0  0  0
   -0.9503    0.9758   -2.3977 H   0  0  0  0  0  0  0  0  0  0  0  0
   -2.4605    1.6996    1.9733 H   0  0  0  0  0  0  0  0  0  0  0  0
   -2.2116    0.3856    3.1559 H   0  0  0  0  0  0  0  0  0  0  0  0
   -0.0528    2.2790    2.0856 H   0  0  0  0  0  0  0  0  0  0  0  0
   -0.7606    2.3305    3.7091 H   0  0  0  0  0  0  0  0  0  0  0  0
    0.2326    0.9467    3.2165 H   0  0  0  0  0  0  0  0  0  0  0  0
   -4.9403   -2.3042    0.4308 H   0  0  0  0  0  0  0  0  0  0  0  0
   -5.0025   -0.6990   -0.3588 H   0  0  0  0  0  0  0  0  0  0  0  0
   -3.4479   -3.0940   -1.4564 H   0  0  0  0  0  0  0  0  0  0  0  0
   -5.0447   -2.5789   -2.0318 H   0  0  0  0  0  0  0  0  0  0  0  0
   -3.6440   -1.5170   -2.2331 H   0  0  0  0  0  0  0  0  0  0  0  0
  1  2  1  0  0  0  0
  2  3  1  0  0  0  0
  3  4  1  0  0  0  0
  4  5  2  0  0  0  0
  4  6  2  0  0  0  0
  6  7  1  0  0  0  0
  7  8  1  0  0  0  0
  4  9  1  0  0  0  0
  9 10  1  0  0  0  0
 10 11  1  0  0  0  0
 11 12  1  0  0  0  0
 12 13  2  0  0  0  0
 12 14  2  0  0  0  0
 14 15  1  0  0  0  0
 15 16  1  0  0  0  0
 12 17  2  0  0  0  0
 17 18  1  0  0  0  0
 18 19  1  0  0  0  0
  1 20  1  0  0  0  0
  1 21  1  0  0  0  0
  1 22  1  0  0  0  0
  2 23  1  0  0  0  0
  2 24  1  0  0  0  0
  7 25  1  0  0  0  0
  7 26  1  0  0  0  0
  8 27  1  0  0  0  0
  8 28  1  0  0  0  0
  8 29  1  0  0  0  0
 10 30  1  0  0  0  0
 10 31  1  0  0  0  0
 15 32  1  0  0  0  0
 15 33  1  0  0  0  0
 16 34  1  0  0  0  0
 16 35  1  0  0  0  0
 16 36  1  0  0  0  0
 18 37  1  0  0  0  0
 18 38  1  0  0  0  0
 19 39  1  0  0  0  0
 19 40  1  0  0  0  0
 19 41  1  0  0  0  0
M  END
