 xtb: 6.7.1 (edcfbbe)
          04092507313D

 38 37  0     0  0            999 V2000
    3.0829   -4.7022   -0.8951 C   0  0  0  0  0  0  0  0  0  0  0  0
    3.5269   -3.5347   -1.7621 C   0  0  0  0  0  0  0  0  0  0  0  0
    3.4569   -2.2959   -1.0288 O   0  0  0  0  0  0  0  0  0  0  0  0
    2.3161   -1.6347   -1.0199 C   0  0  0  0  0  0  0  0  0  0  0  0
    1.3163   -1.9754   -1.6127 O   0  0  0  0  0  0  0  0  0  0  0  0
    2.4215   -0.3799   -0.1764 C   0  0  0  0  0  0  0  0  0  0  0  0
    1.0763    0.3191   -0.0850 C   0  0  0  0  0  0  0  0  0  0  0  0
    0.6135    0.3465   -1.0837 H   0  0  0  0  0  0  0  0  0  0  0  0
    1.1793    1.7607    0.3756 C   0  0  0  0  0  0  0  0  0  0  0  0
    2.1342    2.4621    0.1367 O   0  0  0  0  0  0  0  0  0  0  0  0
    0.0993    2.1395    1.0267 O   0  0  0  0  0  0  0  0  0  0  0  0
   -0.0129    3.5138    1.4503 C   0  0  0  0  0  0  0  0  0  0  0  0
   -0.8041    4.3194    0.4348 C   0  0  0  0  0  0  0  0  0  0  0  0
   -0.0717   -0.6204    0.9740 S   0  0  0  0  0  0  0  0  0  0  0  0
   -1.8788    0.2149    0.2275 P   0  0  0  0  0  0  0  0  0  0  0  0
   -1.8090    1.1228   -1.5051 S   0  0  0  0  0  0  0  0  0  0  0  0
   -2.8655   -1.0500    0.2645 O   0  0  0  0  0  0  0  0  0  0  0  0
   -2.7021   -2.1282   -0.6607 C   0  0  0  0  0  0  0  0  0  0  0  0
   -2.5207    1.1083    1.3586 O   0  0  0  0  0  0  0  0  0  0  0  0
   -2.7209    0.6203    2.7000 C   0  0  0  0  0  0  0  0  0  0  0  0
    3.6823   -4.7448    0.0099 H   0  0  0  0  0  0  0  0  0  0  0  0
    2.0364   -4.5879   -0.6222 H   0  0  0  0  0  0  0  0  0  0  0  0
    3.2039   -5.6269   -1.4496 H   0  0  0  0  0  0  0  0  0  0  0  0
    2.8971   -3.4500   -2.6523 H   0  0  0  0  0  0  0  0  0  0  0  0
    4.5757   -3.6248   -2.0452 H   0  0  0  0  0  0  0  0  0  0  0  0
    3.1455    0.2985   -0.6344 H   0  0  0  0  0  0  0  0  0  0  0  0
    2.7947   -0.6518    0.8119 H   0  0  0  0  0  0  0  0  0  0  0  0
   -0.5304    3.4672    2.4088 H   0  0  0  0  0  0  0  0  0  0  0  0
    0.9965    3.9154    1.5743 H   0  0  0  0  0  0  0  0  0  0  0  0
   -0.9424    5.3297    0.8045 H   0  0  0  0  0  0  0  0  0  0  0  0
   -0.2741    4.3553   -0.5146 H   0  0  0  0  0  0  0  0  0  0  0  0
   -1.7752    3.8582    0.2692 H   0  0  0  0  0  0  0  0  0  0  0  0
   -2.7722   -1.7578   -1.6845 H   0  0  0  0  0  0  0  0  0  0  0  0
   -3.5109   -2.8223   -0.4485 H   0  0  0  0  0  0  0  0  0  0  0  0
   -1.7335   -2.6082   -0.5155 H   0  0  0  0  0  0  0  0  0  0  0  0
   -3.0799    1.4776    3.2635 H   0  0  0  0  0  0  0  0  0  0  0  0
   -1.7778    0.2544    3.1062 H   0  0  0  0  0  0  0  0  0  0  0  0
   -3.4605   -0.1779    2.6974 H   0  0  0  0  0  0  0  0  0  0  0  0
  1  2  1  0  0  0  0
  2  3  1  0  0  0  0
  3  4  1  0  0  0  0
  4  5  2  0  0  0  0
  4  6  1  0  0  0  0
  6  7  1  0  0  0  0
  7  8  1  0  0  0  0
  7  9  1  0  0  0  0
  9 10  2  0  0  0  0
  9 11  1  0  0  0  0
 11 12  1  0  0  0  0
 12 13  1  0  0  0  0
  7 14  1  0  0  0  0
 14 15  1  0  0  0  0
 15 16  2  0  0  0  0
 15 17  1  0  0  0  0
 17 18  1  0  0  0  0
 15 19  2  0  0  0  0
 19 20  1  0  0  0  0
  1 21  1  0  0  0  0
  1 22  1  0  0  0  0
  1 23  1  0  0  0  0
  2 24  1  0  0  0  0
  2 25  1  0  0  0  0
  6 26  1  0  0  0  0
  6 27  1  0  0  0  0
 12 28  1  0  0  0  0
 12 29  1  0  0  0  0
 13 30  1  0  0  0  0
 13 31  1  0  0  0  0
 13 32  1  0  0  0  0
 18 33  1  0  0  0  0
 18 34  1  0  0  0  0
 18 35  1  0  0  0  0
 20 36  1  0  0  0  0
 20 37  1  0  0  0  0
 20 38  1  0  0  0  0
M  END
