38
 xtb: 6.7.1 (edcfbbe)
C            2.87783366880613       -3.85339102442151        0.32447810074393
C            1.55070604262867       -3.18838154267923        0.04543416453378
O            1.67972220970732       -1.73136620219535        0.14420477674956
C            1.55643234310933       -1.18443130994399        1.36067666665691
O            1.32527383394383       -1.81419267516013        2.37794191988165
C            1.75582565743759        0.31036200736378        1.31447485569696
C            0.79881178201504        0.99418149091151        0.34480942526860
H            0.87721508368365        0.58742166073904       -0.66703745863488
C            1.03007659038521        2.49386965556358        0.29601324406003
O            1.45892672633396        3.14318364636612        1.23134379424706
O            0.68483865231165        2.99188134343588       -0.89394562151936
C            0.82558691639999        4.44332878546999       -1.07403529133933
C            2.24185393631295        4.79508910935596       -1.46064323598876
S           -0.97666899032376        0.78395827063292        0.87938200841734
P           -1.73814450922839       -0.57775608379931       -0.57523184200979
S           -1.04230427797852       -0.39392226329314       -2.37546038810020
O           -1.53903140389997       -2.06449477031361       -0.01024557975688
C           -2.05802197337677       -2.45866543513143        1.29625639093074
O           -3.31439502136326       -0.35732140635745       -0.33001522689502
C           -3.98426120192894        0.80709544722390       -0.89462712905870
H            2.76814815825271       -4.93421151524452        0.19103192609518
H            3.64530131604433       -3.49774822201783       -0.36868959855921
H            3.20816831502829       -3.66587852352538        1.34989688136201
H            0.76996418248623       -3.51943129573079        0.73335524295986
H            1.22211323106161       -3.35288676842033       -0.98230313770761
H            2.78056480711640        0.50798908120111        0.97442843339464
H            1.64357817673067        0.70630154736271        2.32426537053217
H            0.11901709976969        4.67267835277535       -1.87307878381166
H            0.50830684192790        4.93876704565804       -0.15349317575028
H            2.53523730215529        4.27175928419108       -2.37494336534600
H            2.29955007247814        5.87194917518607       -1.64762585914083
H            2.94725118997297        4.54640940517655       -0.66344095649499
H           -1.62556173406293       -3.43850434840643        1.49770622709848
H           -3.14712663653892       -2.52430987286520        1.25471028966979
H           -1.74344856053473       -1.74711740185522        2.06471260493363
H           -5.00584192026363        0.76662213408712       -0.51780113272371
H           -3.97734406806317        0.74330790912201       -1.98519568523713
H           -3.49827109247889        1.72856064414067       -0.56208286029872
