 xtb: 6.7.1 (edcfbbe)
          04092505213D

 41 40  0     0  0            999 V2000
    2.8683    0.0518   -2.6668 C   0  0  0  0  0  0  0  0  0  0  0  0
    2.8914    1.1729   -1.6472 C   0  0  0  0  0  0  0  0  0  0  0  0
    3.2664    0.6762   -0.3505 O   0  0  0  0  0  0  0  0  0  0  0  0
    2.2552    0.3086    0.8113 P   0  0  0  0  0  0  0  0  0  0  0  0
    1.0143    1.7268    1.3429 S   0  0  0  0  0  0  0  0  0  0  0  0
    3.2251   -0.0069    2.0119 O   0  0  0  0  0  0  0  0  0  0  0  0
    4.0498   -1.1873    2.1758 C   0  0  0  0  0  0  0  0  0  0  0  0
    4.9511   -1.4522    0.9900 C   0  0  0  0  0  0  0  0  0  0  0  0
    1.3735   -1.5580    0.2780 S   0  0  0  0  0  0  0  0  0  0  0  0
   -0.1161   -1.4600    1.3234 C   0  0  0  0  0  0  0  0  0  0  0  0
   -1.6316   -1.8929    0.4330 S   0  0  0  0  0  0  0  0  0  0  0  0
   -1.9972   -0.0911   -0.6003 P   0  0  0  0  0  0  0  0  0  0  0  0
   -0.6689    0.6513   -1.8214 S   0  0  0  0  0  0  0  0  0  0  0  0
   -2.3918    0.8225    0.6534 O   0  0  0  0  0  0  0  0  0  0  0  0
   -2.3998    2.2586    0.5771 C   0  0  0  0  0  0  0  0  0  0  0  0
   -3.5327    2.7644   -0.2913 C   0  0  0  0  0  0  0  0  0  0  0  0
   -3.3274   -0.4233   -1.3945 O   0  0  0  0  0  0  0  0  0  0  0  0
   -4.5134   -0.9465   -0.7451 C   0  0  0  0  0  0  0  0  0  0  0  0
   -5.7147   -0.5444   -1.5760 C   0  0  0  0  0  0  0  0  0  0  0  0
    2.0802   -0.6596   -2.4306 H   0  0  0  0  0  0  0  0  0  0  0  0
    2.6674    0.4729   -3.6464 H   0  0  0  0  0  0  0  0  0  0  0  0
    3.8246   -0.4630   -2.6808 H   0  0  0  0  0  0  0  0  0  0  0  0
    1.9159    1.6646   -1.5850 H   0  0  0  0  0  0  0  0  0  0  0  0
    3.6564    1.9130   -1.8891 H   0  0  0  0  0  0  0  0  0  0  0  0
    4.6221   -0.9630    3.0771 H   0  0  0  0  0  0  0  0  0  0  0  0
    3.3897   -2.0394    2.3565 H   0  0  0  0  0  0  0  0  0  0  0  0
    5.6175   -2.2751    1.2300 H   0  0  0  0  0  0  0  0  0  0  0  0
    4.3565   -1.7212    0.1191 H   0  0  0  0  0  0  0  0  0  0  0  0
    5.5387   -0.5682    0.7571 H   0  0  0  0  0  0  0  0  0  0  0  0
   -0.1994   -0.4423    1.7144 H   0  0  0  0  0  0  0  0  0  0  0  0
   -0.0296   -2.1914    2.1225 H   0  0  0  0  0  0  0  0  0  0  0  0
   -2.5008    2.5773    1.6155 H   0  0  0  0  0  0  0  0  0  0  0  0
   -1.4310    2.5939    0.1937 H   0  0  0  0  0  0  0  0  0  0  0  0
   -3.3996    2.4076   -1.3128 H   0  0  0  0  0  0  0  0  0  0  0  0
   -4.4883    2.4129    0.0898 H   0  0  0  0  0  0  0  0  0  0  0  0
   -3.5239    3.8498   -0.2937 H   0  0  0  0  0  0  0  0  0  0  0  0
   -4.4076   -2.0325   -0.6944 H   0  0  0  0  0  0  0  0  0  0  0  0
   -4.5696   -0.5424    0.2690 H   0  0  0  0  0  0  0  0  0  0  0  0
   -5.6065   -0.9229   -2.5882 H   0  0  0  0  0  0  0  0  0  0  0  0
   -6.6113   -0.9617   -1.1293 H   0  0  0  0  0  0  0  0  0  0  0  0
   -5.8030    0.5379   -1.6169 H   0  0  0  0  0  0  0  0  0  0  0  0
  1  2  1  0  0  0  0
  2  3  1  0  0  0  0
  3  4  2  0  0  0  0
  4  5  2  0  0  0  0
  4  6  2  0  0  0  0
  6  7  1  0  0  0  0
  7  8  1  0  0  0  0
  4  9  1  0  0  0  0
  9 10  1  0  0  0  0
 10 11  1  0  0  0  0
 11 12  1  0  0  0  0
 12 13  2  0  0  0  0
 12 14  1  0  0  0  0
 14 15  1  0  0  0  0
 15 16  1  0  0  0  0
 12 17  2  0  0  0  0
 17 18  1  0  0  0  0
 18 19  1  0  0  0  0
  1 20  1  0  0  0  0
  1 21  1  0  0  0  0
  1 22  1  0  0  0  0
  2 23  1  0  0  0  0
  2 24  1  0  0  0  0
  7 25  1  0  0  0  0
  7 26  1  0  0  0  0
  8 27  1  0  0  0  0
  8 28  1  0  0  0  0
  8 29  1  0  0  0  0
 10 30  1  0  0  0  0
 10 31  1  0  0  0  0
 15 32  1  0  0  0  0
 15 33  1  0  0  0  0
 16 34  1  0  0  0  0
 16 35  1  0  0  0  0
 16 36  1  0  0  0  0
 18 37  1  0  0  0  0
 18 38  1  0  0  0  0
 19 39  1  0  0  0  0
 19 40  1  0  0  0  0
 19 41  1  0  0  0  0
M  END
