41
 xtb: 6.7.1 (edcfbbe)
C            5.32877301691698       -1.59939953800277       -1.81963804876008
C            3.95544208178976       -1.15554587433627       -2.25191109645988
O            3.02470828746318       -1.34444978478444       -1.12640478844999
P            2.16861718248142       -0.11481458356922       -0.53760427463446
S            3.12115198099356        1.54942230160004       -0.19426715395411
O            1.46482472191368       -0.82744055411025        0.71580332824790
C            2.06683978282290       -0.76406227857424        2.05861678100681
C            1.13239011184793       -1.48812495252927        2.99158090158718
S            0.59275645617966       -0.01303378174620       -1.94585954213597
C           -0.12694334585004        1.62820063572413       -1.54377011518587
S           -0.87966870720467        1.84554604827981        0.11705260475889
P           -2.51725145136048        0.50961073898451       -0.00483282734398
S           -3.44942103697941        0.43230833502635       -1.71324563255784
O           -3.38349796106620        0.93698748666548        1.28425498551781
C           -4.54349208033235        1.83700057796492        1.21210064797633
C           -4.13279022391556        3.28577737616091        1.12623059610862
O           -1.84354805257439       -0.85019817771251        0.52359020271988
C           -2.56389611544672       -2.12882419047428        0.40486339050655
C           -1.67870872343552       -3.18873381156804        1.00669470218789
H            5.70465804609562       -0.96922283617889       -1.00846183147570
H            5.31589898466460       -2.64098293202054       -1.48640249733068
H            6.01399444720968       -1.51753619420788       -2.66942881163376
H            3.56266523876522       -1.76681237229510       -3.06850461473150
H            3.95041780151891       -0.10499959686008       -2.55829030027371
H            3.05418908249486       -1.23502559025062        2.01809600858154
H            2.17770811973698        0.28922613335301        2.33157106999026
H            1.54031882510709       -1.43796639161219        4.00589784249708
H            0.14429232005365       -1.01851578311683        2.99265856516483
H            1.03120329788321       -2.53999158685812        2.71143560515811
H           -0.88230468723739        1.81211914488250       -2.31331780984582
H            0.65352905376281        2.39220929803939       -1.60704604926697
H           -5.16051394696790        1.53445708187675        0.36080864859136
H           -5.08455522534124        1.62728862842791        2.13695152864293
H           -3.45706472047379        3.55143675407267        1.94445342397136
H           -3.64742341532388        3.51305851480579        0.17296559858878
H           -5.03135002681316        3.90630393878366        1.20682207517080
H           -3.51765068869868       -2.04216907733779        0.93580010061180
H           -2.75457308929463       -2.31297624292260       -0.65649948247761
H           -1.51050258461527       -3.00546860300896        2.07114187427845
H           -2.16924982659068       -4.16083449520671        0.89617252980699
H           -0.71459615597804       -3.22763816867588        0.49088936482948
