 xtb: 6.7.1 (edcfbbe)
          04092505213D

 41 40  0     0  0            999 V2000
    3.5301    2.1607   -0.9157 C   0  0  0  0  0  0  0  0  0  0  0  0
    2.1785    1.4822   -0.9712 C   0  0  0  0  0  0  0  0  0  0  0  0
    1.7616    1.0689    0.3549 O   0  0  0  0  0  0  0  0  0  0  0  0
    1.9616   -0.3921    0.9069 P   0  0  0  0  0  0  0  0  0  0  0  0
    1.5800   -0.5442    2.8161 S   0  0  0  0  0  0  0  0  0  0  0  0
    3.4535   -0.7268    0.4786 O   0  0  0  0  0  0  0  0  0  0  0  0
    4.0729   -1.9716    0.8650 C   0  0  0  0  0  0  0  0  0  0  0  0
    5.5676   -1.8292    0.6627 C   0  0  0  0  0  0  0  0  0  0  0  0
    0.8389   -1.6966   -0.3585 S   0  0  0  0  0  0  0  0  0  0  0  0
   -0.6928   -1.6711    0.6172 C   0  0  0  0  0  0  0  0  0  0  0  0
   -1.3376   -0.0109    0.9310 S   0  0  0  0  0  0  0  0  0  0  0  0
   -2.1664    0.3518   -1.0116 P   0  0  0  0  0  0  0  0  0  0  0  0
   -0.8984    0.5426   -2.4896 S   0  0  0  0  0  0  0  0  0  0  0  0
   -3.1168    1.6039   -0.7837 O   0  0  0  0  0  0  0  0  0  0  0  0
   -2.6330    2.9521   -0.9117 C   0  0  0  0  0  0  0  0  0  0  0  0
   -1.7227    3.3385    0.2363 C   0  0  0  0  0  0  0  0  0  0  0  0
   -3.1777   -0.8343   -1.2625 O   0  0  0  0  0  0  0  0  0  0  0  0
   -4.5459   -0.9018   -0.7866 C   0  0  0  0  0  0  0  0  0  0  0  0
   -4.6424   -0.9746    0.7226 C   0  0  0  0  0  0  0  0  0  0  0  0
    4.2905    1.4582   -0.5854 H   0  0  0  0  0  0  0  0  0  0  0  0
    3.7814    2.5245   -1.9070 H   0  0  0  0  0  0  0  0  0  0  0  0
    3.4968    2.9961   -0.2219 H   0  0  0  0  0  0  0  0  0  0  0  0
    2.1901    0.6108   -1.6318 H   0  0  0  0  0  0  0  0  0  0  0  0
    1.3982    2.1674   -1.3088 H   0  0  0  0  0  0  0  0  0  0  0  0
    3.8254   -2.1712    1.9128 H   0  0  0  0  0  0  0  0  0  0  0  0
    3.6575   -2.7671    0.2403 H   0  0  0  0  0  0  0  0  0  0  0  0
    5.7829   -1.6062   -0.3783 H   0  0  0  0  0  0  0  0  0  0  0  0
    5.9535   -1.0260    1.2843 H   0  0  0  0  0  0  0  0  0  0  0  0
    6.0531   -2.7595    0.9384 H   0  0  0  0  0  0  0  0  0  0  0  0
   -0.4932   -2.1013    1.5980 H   0  0  0  0  0  0  0  0  0  0  0  0
   -1.4197   -2.2590    0.0607 H   0  0  0  0  0  0  0  0  0  0  0  0
   -2.1095    3.0423   -1.8692 H   0  0  0  0  0  0  0  0  0  0  0  0
   -3.5406    3.5571   -0.9247 H   0  0  0  0  0  0  0  0  0  0  0  0
   -1.4518    4.3854    0.1449 H   0  0  0  0  0  0  0  0  0  0  0  0
   -2.2211    3.1769    1.1888 H   0  0  0  0  0  0  0  0  0  0  0  0
   -0.8142    2.7366    0.2178 H   0  0  0  0  0  0  0  0  0  0  0  0
   -5.0816   -0.0312   -1.1684 H   0  0  0  0  0  0  0  0  0  0  0  0
   -4.9252   -1.8094   -1.2590 H   0  0  0  0  0  0  0  0  0  0  0  0
   -4.2697   -0.0568    1.1718 H   0  0  0  0  0  0  0  0  0  0  0  0
   -5.6837   -1.1055    1.0005 H   0  0  0  0  0  0  0  0  0  0  0  0
   -4.0659   -1.8127    1.1066 H   0  0  0  0  0  0  0  0  0  0  0  0
  1  2  1  0  0  0  0
  2  3  1  0  0  0  0
  3  4  2  0  0  0  0
  4  5  2  0  0  0  0
  4  6  2  0  0  0  0
  6  7  1  0  0  0  0
  7  8  1  0  0  0  0
  4  9  1  0  0  0  0
  9 10  1  0  0  0  0
 10 11  1  0  0  0  0
 11 12  1  0  0  0  0
 12 13  2  0  0  0  0
 12 14  2  0  0  0  0
 14 15  1  0  0  0  0
 15 16  1  0  0  0  0
 12 17  2  0  0  0  0
 17 18  1  0  0  0  0
 18 19  1  0  0  0  0
  1 20  1  0  0  0  0
  1 21  1  0  0  0  0
  1 22  1  0  0  0  0
  2 23  1  0  0  0  0
  2 24  1  0  0  0  0
  7 25  1  0  0  0  0
  7 26  1  0  0  0  0
  8 27  1  0  0  0  0
  8 28  1  0  0  0  0
  8 29  1  0  0  0  0
 10 30  1  0  0  0  0
 10 31  1  0  0  0  0
 15 32  1  0  0  0  0
 15 33  1  0  0  0  0
 16 34  1  0  0  0  0
 16 35  1  0  0  0  0
 16 36  1  0  0  0  0
 18 37  1  0  0  0  0
 18 38  1  0  0  0  0
 19 39  1  0  0  0  0
 19 40  1  0  0  0  0
 19 41  1  0  0  0  0
M  END
