41
 xtb: 6.7.1 (edcfbbe)
C            4.52730226313403       -1.16950265331868       -2.59239460456228
C            4.57010369944434       -1.58771635735952       -1.14378869047679
O            3.22918594429622       -1.63900866813855       -0.54534680687187
P            2.45128112797533       -0.33145076054706       -0.01409494121986
S            3.53444132420678        1.15531025534526        0.62471864059826
O            1.42356220601249       -0.98985635760018        1.03042458280356
C            1.75383974719016       -1.14339871252485        2.45493735649864
C            2.78561219732989       -2.21968828410196        2.68586616616327
S            1.16424276059262        0.06011323015813       -1.64998911219477
C            0.58404528959442        1.75597212072737       -1.25659096648742
S           -0.41725961851187        1.99413719015473        0.26495964826344
P           -2.11136073775638        0.80047596102098       -0.16114105336687
S           -2.71204925791789        0.76858370105395       -2.01361565978313
O           -3.15586732307237        1.34716522774822        0.93619706079349
C           -3.89976984167297        2.59962455934239        0.72223034283599
C           -5.36830606709198        2.31847939017181        0.90758841215233
O           -1.69875908239343       -0.59936006697187        0.50341908673576
C           -2.44543339462640       -1.83558805020961        0.22092662944642
C           -1.69914906884281       -2.95769403758914        0.89447067129981
H            5.53483992927516       -1.26397908120013       -3.01048473087578
H            3.85476589269122       -1.81320679258564       -3.16689648427755
H            4.20861053349674       -0.12936513189364       -2.70434986046880
H            5.19034062528496       -0.91781018065959       -0.54088768250183
H            4.93732841317614       -2.60995235844337       -1.03200186673391
H            2.07907429303610       -0.17105652812868        2.83764536258199
H            0.79390166638331       -1.40164198203700        2.90748611522696
H            3.75736506723355       -1.94737262021029        2.26294471282963
H            2.91118747512025       -2.35542658894043        3.76509391758571
H            2.46212236364471       -3.17091685119239        2.25348786574416
H            0.00287301735429        2.06843916747282       -2.12887009706492
H            1.44666378242496        2.41817772105626       -1.13745164016213
H           -3.51846976786568        3.30757159724428        1.46279975027023
H           -3.68791578829526        2.98181285172345       -0.28102361893674
H           -5.56579792397345        1.90745066402647        1.90179377699618
H           -5.92642831529355        3.25448882144701        0.80465744783750
H           -5.72792904714191        1.61450686824144        0.15157292619892
H           -3.46045929324818       -1.72100648721979        0.61462607126477
H           -2.48865037972093       -1.96898405551872       -0.86390574578245
H           -1.64834773308260       -2.80361625387759        1.97617846845349
H           -2.22658284770773       -3.89737240552695        0.70360820944296
H           -0.68379669873614       -3.04376091311651        0.49618092159682
