 xtb: 6.7.1 (edcfbbe)
          04092505203D

 41 40  0     0  0            999 V2000
    3.5808   -2.0372   -2.4308 C   0  0  0  0  0  0  0  0  0  0  0  0
    3.8980   -2.1775   -0.9560 C   0  0  0  0  0  0  0  0  0  0  0  0
    2.7559   -1.8980   -0.1273 O   0  0  0  0  0  0  0  0  0  0  0  0
    2.1359   -0.4432    0.0141 P   0  0  0  0  0  0  0  0  0  0  0  0
    3.4332    1.0295    0.0801 S   0  0  0  0  0  0  0  0  0  0  0  0
    1.2055   -0.6240    1.2824 O   0  0  0  0  0  0  0  0  0  0  0  0
    1.6144   -0.2208    2.6026 C   0  0  0  0  0  0  0  0  0  0  0  0
    2.7042   -1.1211    3.1454 C   0  0  0  0  0  0  0  0  0  0  0  0
    0.6735   -0.3496   -1.5125 S   0  0  0  0  0  0  0  0  0  0  0  0
    0.3698    1.4290   -1.3806 C   0  0  0  0  0  0  0  0  0  0  0  0
   -0.3641    1.9022    0.2136 S   0  0  0  0  0  0  0  0  0  0  0  0
   -2.1779    0.8570   -0.0499 P   0  0  0  0  0  0  0  0  0  0  0  0
   -2.9490    0.8389   -1.8531 S   0  0  0  0  0  0  0  0  0  0  0  0
   -2.9719    1.6625    1.0621 O   0  0  0  0  0  0  0  0  0  0  0  0
   -4.4121    1.7385    1.0736 C   0  0  0  0  0  0  0  0  0  0  0  0
   -5.0534    0.3855    1.3055 C   0  0  0  0  0  0  0  0  0  0  0  0
   -1.9670   -0.5797    0.6049 O   0  0  0  0  0  0  0  0  0  0  0  0
   -2.1432   -1.8377   -0.0817 C   0  0  0  0  0  0  0  0  0  0  0  0
   -1.1787   -2.8544    0.4926 C   0  0  0  0  0  0  0  0  0  0  0  0
    2.7059   -2.6290   -2.6879 H   0  0  0  0  0  0  0  0  0  0  0  0
    3.3797   -0.9942   -2.6718 H   0  0  0  0  0  0  0  0  0  0  0  0
    4.4305   -2.3754   -3.0151 H   0  0  0  0  0  0  0  0  0  0  0  0
    4.7067   -1.4972   -0.6708 H   0  0  0  0  0  0  0  0  0  0  0  0
    4.1644   -3.2029   -0.6963 H   0  0  0  0  0  0  0  0  0  0  0  0
    1.9523    0.8200    2.5599 H   0  0  0  0  0  0  0  0  0  0  0  0
    0.6984   -0.2838    3.1918 H   0  0  0  0  0  0  0  0  0  0  0  0
    3.6068   -1.0078    2.5457 H   0  0  0  0  0  0  0  0  0  0  0  0
    2.9250   -0.8427    4.1710 H   0  0  0  0  0  0  0  0  0  0  0  0
    2.3867   -2.1598    3.1102 H   0  0  0  0  0  0  0  0  0  0  0  0
   -0.3102    1.6919   -2.1904 H   0  0  0  0  0  0  0  0  0  0  0  0
    1.3127    1.9694   -1.4615 H   0  0  0  0  0  0  0  0  0  0  0  0
   -4.6288    2.4350    1.8846 H   0  0  0  0  0  0  0  0  0  0  0  0
   -4.7421    2.1627    0.1202 H   0  0  0  0  0  0  0  0  0  0  0  0
   -4.8664   -0.2621    0.4490 H   0  0  0  0  0  0  0  0  0  0  0  0
   -4.6422   -0.0772    2.1991 H   0  0  0  0  0  0  0  0  0  0  0  0
   -6.1254    0.5103    1.4230 H   0  0  0  0  0  0  0  0  0  0  0  0
   -3.1781   -2.1510    0.0796 H   0  0  0  0  0  0  0  0  0  0  0  0
   -1.9800   -1.6881   -1.1533 H   0  0  0  0  0  0  0  0  0  0  0  0
   -1.3307   -2.9456    1.5641 H   0  0  0  0  0  0  0  0  0  0  0  0
   -1.3579   -3.8140    0.0185 H   0  0  0  0  0  0  0  0  0  0  0  0
   -0.1503   -2.5533    0.3093 H   0  0  0  0  0  0  0  0  0  0  0  0
  1  2  1  0  0  0  0
  2  3  1  0  0  0  0
  3  4  2  0  0  0  0
  4  5  2  0  0  0  0
  4  6  2  0  0  0  0
  6  7  1  0  0  0  0
  7  8  1  0  0  0  0
  4  9  1  0  0  0  0
  9 10  1  0  0  0  0
 10 11  1  0  0  0  0
 11 12  1  0  0  0  0
 12 13  2  0  0  0  0
 12 14  2  0  0  0  0
 14 15  1  0  0  0  0
 15 16  1  0  0  0  0
 12 17  2  0  0  0  0
 17 18  1  0  0  0  0
 18 19  1  0  0  0  0
  1 20  1  0  0  0  0
  1 21  1  0  0  0  0
  1 22  1  0  0  0  0
  2 23  1  0  0  0  0
  2 24  1  0  0  0  0
  7 25  1  0  0  0  0
  7 26  1  0  0  0  0
  8 27  1  0  0  0  0
  8 28  1  0  0  0  0
  8 29  1  0  0  0  0
 10 30  1  0  0  0  0
 10 31  1  0  0  0  0
 15 32  1  0  0  0  0
 15 33  1  0  0  0  0
 16 34  1  0  0  0  0
 16 35  1  0  0  0  0
 16 36  1  0  0  0  0
 18 37  1  0  0  0  0
 18 38  1  0  0  0  0
 19 39  1  0  0  0  0
 19 40  1  0  0  0  0
 19 41  1  0  0  0  0
M  END
