 xtb: 6.7.1 (edcfbbe)
          04092505213D

 41 40  0     0  0            999 V2000
    5.8137    0.3240    0.2182 C   0  0  0  0  0  0  0  0  0  0  0  0
    4.4322   -0.0814    0.6902 C   0  0  0  0  0  0  0  0  0  0  0  0
    3.5177    0.1015   -0.4102 O   0  0  0  0  0  0  0  0  0  0  0  0
    2.0830   -0.5811   -0.3977 P   0  0  0  0  0  0  0  0  0  0  0  0
    2.0925   -2.5001   -0.0059 S   0  0  0  0  0  0  0  0  0  0  0  0
    1.5359   -0.2555   -1.8367 O   0  0  0  0  0  0  0  0  0  0  0  0
    1.9170    0.8871   -2.6462 C   0  0  0  0  0  0  0  0  0  0  0  0
    1.6562    2.2121   -1.9636 C   0  0  0  0  0  0  0  0  0  0  0  0
    0.9786    0.5965    1.0024 S   0  0  0  0  0  0  0  0  0  0  0  0
    0.0395   -0.7182    1.8109 C   0  0  0  0  0  0  0  0  0  0  0  0
   -1.2219   -1.4941    0.7549 S   0  0  0  0  0  0  0  0  0  0  0  0
   -2.3627    0.2120    0.2298 P   0  0  0  0  0  0  0  0  0  0  0  0
   -1.8590    1.2899   -1.3299 S   0  0  0  0  0  0  0  0  0  0  0  0
   -2.4163    0.9573    1.6199 O   0  0  0  0  0  0  0  0  0  0  0  0
   -2.5117    2.3947    1.7637 C   0  0  0  0  0  0  0  0  0  0  0  0
   -1.4386    2.8682    2.7230 C   0  0  0  0  0  0  0  0  0  0  0  0
   -3.8465   -0.3609    0.1211 O   0  0  0  0  0  0  0  0  0  0  0  0
   -4.3814   -0.8787   -1.1056 C   0  0  0  0  0  0  0  0  0  0  0  0
   -3.7139   -2.1795   -1.5047 C   0  0  0  0  0  0  0  0  0  0  0  0
    5.8079    1.3603   -0.1068 H   0  0  0  0  0  0  0  0  0  0  0  0
    6.5164    0.2080    1.0367 H   0  0  0  0  0  0  0  0  0  0  0  0
    6.1244   -0.3045   -0.6116 H   0  0  0  0  0  0  0  0  0  0  0  0
    4.0940    0.5433    1.5213 H   0  0  0  0  0  0  0  0  0  0  0  0
    4.4038   -1.1328    0.9946 H   0  0  0  0  0  0  0  0  0  0  0  0
    2.9729    0.7764   -2.8997 H   0  0  0  0  0  0  0  0  0  0  0  0
    1.3005    0.7725   -3.5390 H   0  0  0  0  0  0  0  0  0  0  0  0
    2.2409    2.2920   -1.0492 H   0  0  0  0  0  0  0  0  0  0  0  0
    1.9385    3.0150   -2.6372 H   0  0  0  0  0  0  0  0  0  0  0  0
    0.6012    2.3112   -1.7199 H   0  0  0  0  0  0  0  0  0  0  0  0
   -0.4360   -0.2744    2.6815 H   0  0  0  0  0  0  0  0  0  0  0  0
    0.7113   -1.5307    2.0880 H   0  0  0  0  0  0  0  0  0  0  0  0
   -2.3948    2.8573    0.7779 H   0  0  0  0  0  0  0  0  0  0  0  0
   -3.5131    2.6005    2.1462 H   0  0  0  0  0  0  0  0  0  0  0  0
   -1.5284    3.9420    2.8497 H   0  0  0  0  0  0  0  0  0  0  0  0
   -1.5573    2.3827    3.6874 H   0  0  0  0  0  0  0  0  0  0  0  0
   -0.4520    2.6360    2.3269 H   0  0  0  0  0  0  0  0  0  0  0  0
   -5.4428   -1.0170   -0.8958 H   0  0  0  0  0  0  0  0  0  0  0  0
   -4.2513   -0.1228   -1.8878 H   0  0  0  0  0  0  0  0  0  0  0  0
   -3.7860   -2.9057   -0.6988 H   0  0  0  0  0  0  0  0  0  0  0  0
   -4.1921   -2.5766   -2.3943 H   0  0  0  0  0  0  0  0  0  0  0  0
   -2.6584   -2.0050   -1.7191 H   0  0  0  0  0  0  0  0  0  0  0  0
  1  2  1  0  0  0  0
  2  3  1  0  0  0  0
  3  4  2  0  0  0  0
  4  5  2  0  0  0  0
  4  6  2  0  0  0  0
  6  7  1  0  0  0  0
  7  8  1  0  0  0  0
  4  9  1  0  0  0  0
  9 10  1  0  0  0  0
 10 11  1  0  0  0  0
 11 12  1  0  0  0  0
 12 13  2  0  0  0  0
 12 14  2  0  0  0  0
 14 15  1  0  0  0  0
 15 16  1  0  0  0  0
 12 17  2  0  0  0  0
 17 18  1  0  0  0  0
 18 19  1  0  0  0  0
  1 20  1  0  0  0  0
  1 21  1  0  0  0  0
  1 22  1  0  0  0  0
  2 23  1  0  0  0  0
  2 24  1  0  0  0  0
  7 25  1  0  0  0  0
  7 26  1  0  0  0  0
  8 27  1  0  0  0  0
  8 28  1  0  0  0  0
  8 29  1  0  0  0  0
 10 30  1  0  0  0  0
 10 31  1  0  0  0  0
 15 32  1  0  0  0  0
 15 33  1  0  0  0  0
 16 34  1  0  0  0  0
 16 35  1  0  0  0  0
 16 36  1  0  0  0  0
 18 37  1  0  0  0  0
 18 38  1  0  0  0  0
 19 39  1  0  0  0  0
 19 40  1  0  0  0  0
 19 41  1  0  0  0  0
M  END
