 xtb: 6.7.1 (edcfbbe)
          04092505213D

 41 40  0     0  0            999 V2000
    4.9364   -1.6239   -0.7401 C   0  0  0  0  0  0  0  0  0  0  0  0
    4.4293   -0.5339   -1.6607 C   0  0  0  0  0  0  0  0  0  0  0  0
    3.0351   -0.2402   -1.4340 O   0  0  0  0  0  0  0  0  0  0  0  0
    2.5347    0.4411   -0.0889 P   0  0  0  0  0  0  0  0  0  0  0  0
    3.7504    1.7413    0.7269 S   0  0  0  0  0  0  0  0  0  0  0  0
    2.2011   -0.8348    0.8105 O   0  0  0  0  0  0  0  0  0  0  0  0
    2.1402   -0.7660    2.2430 C   0  0  0  0  0  0  0  0  0  0  0  0
    0.9953    0.0985    2.7301 C   0  0  0  0  0  0  0  0  0  0  0  0
    0.6770    1.1658   -0.7836 S   0  0  0  0  0  0  0  0  0  0  0  0
    0.0143   -0.3828   -1.4771 C   0  0  0  0  0  0  0  0  0  0  0  0
   -0.7939   -1.4466   -0.2555 S   0  0  0  0  0  0  0  0  0  0  0  0
   -2.5051   -0.2477   -0.0073 P   0  0  0  0  0  0  0  0  0  0  0  0
   -3.2395    0.6244   -1.6093 S   0  0  0  0  0  0  0  0  0  0  0  0
   -1.9976    0.6945    1.1613 O   0  0  0  0  0  0  0  0  0  0  0  0
   -2.6945    1.9030    1.5380 C   0  0  0  0  0  0  0  0  0  0  0  0
   -2.0509    3.1116    0.8881 C   0  0  0  0  0  0  0  0  0  0  0  0
   -3.5534   -1.1560    0.7728 O   0  0  0  0  0  0  0  0  0  0  0  0
   -4.5133   -1.9834    0.0925 C   0  0  0  0  0  0  0  0  0  0  0  0
   -3.8533   -3.1407   -0.6290 C   0  0  0  0  0  0  0  0  0  0  0  0
    4.2987   -2.5015   -0.8065 H   0  0  0  0  0  0  0  0  0  0  0  0
    5.9499   -1.8900   -1.0235 H   0  0  0  0  0  0  0  0  0  0  0  0
    4.9400   -1.2668    0.2889 H   0  0  0  0  0  0  0  0  0  0  0  0
    4.4638   -0.8373   -2.7080 H   0  0  0  0  0  0  0  0  0  0  0  0
    5.0030    0.3876   -1.5208 H   0  0  0  0  0  0  0  0  0  0  0  0
    2.0214   -1.8052    2.5517 H   0  0  0  0  0  0  0  0  0  0  0  0
    3.0928   -0.3693    2.6091 H   0  0  0  0  0  0  0  0  0  0  0  0
    0.9729    0.0893    3.8151 H   0  0  0  0  0  0  0  0  0  0  0  0
    1.1391    1.1244    2.3891 H   0  0  0  0  0  0  0  0  0  0  0  0
    0.0451   -0.2670    2.3487 H   0  0  0  0  0  0  0  0  0  0  0  0
    0.8219   -0.9542   -1.9235 H   0  0  0  0  0  0  0  0  0  0  0  0
   -0.7210   -0.0803   -2.2235 H   0  0  0  0  0  0  0  0  0  0  0  0
   -3.7465    1.8183    1.2518 H   0  0  0  0  0  0  0  0  0  0  0  0
   -2.6118    1.9425    2.6252 H   0  0  0  0  0  0  0  0  0  0  0  0
   -2.5397    4.0133    1.2424 H   0  0  0  0  0  0  0  0  0  0  0  0
   -0.9932    3.1527    1.1342 H   0  0  0  0  0  0  0  0  0  0  0  0
   -2.1480    3.0551   -0.1941 H   0  0  0  0  0  0  0  0  0  0  0  0
   -5.1744   -2.3272    0.8890 H   0  0  0  0  0  0  0  0  0  0  0  0
   -5.0711   -1.3582   -0.6121 H   0  0  0  0  0  0  0  0  0  0  0  0
   -3.2487   -2.7679   -1.4548 H   0  0  0  0  0  0  0  0  0  0  0  0
   -3.2122   -3.6940    0.0525 H   0  0  0  0  0  0  0  0  0  0  0  0
   -4.6183   -3.8018   -1.0233 H   0  0  0  0  0  0  0  0  0  0  0  0
  1  2  1  0  0  0  0
  2  3  1  0  0  0  0
  3  4  2  0  0  0  0
  4  5  2  0  0  0  0
  4  6  2  0  0  0  0
  6  7  1  0  0  0  0
  7  8  1  0  0  0  0
  4  9  1  0  0  0  0
  9 10  1  0  0  0  0
 10 11  1  0  0  0  0
 11 12  1  0  0  0  0
 12 13  2  0  0  0  0
 12 14  2  0  0  0  0
 14 15  1  0  0  0  0
 15 16  1  0  0  0  0
 12 17  2  0  0  0  0
 17 18  1  0  0  0  0
 18 19  1  0  0  0  0
  1 20  1  0  0  0  0
  1 21  1  0  0  0  0
  1 22  1  0  0  0  0
  2 23  1  0  0  0  0
  2 24  1  0  0  0  0
  7 25  1  0  0  0  0
  7 26  1  0  0  0  0
  8 27  1  0  0  0  0
  8 28  1  0  0  0  0
  8 29  1  0  0  0  0
 10 30  1  0  0  0  0
 10 31  1  0  0  0  0
 15 32  1  0  0  0  0
 15 33  1  0  0  0  0
 16 34  1  0  0  0  0
 16 35  1  0  0  0  0
 16 36  1  0  0  0  0
 18 37  1  0  0  0  0
 18 38  1  0  0  0  0
 19 39  1  0  0  0  0
 19 40  1  0  0  0  0
 19 41  1  0  0  0  0
M  END
