 xtb: 6.7.1 (edcfbbe)
          04092505203D

 41 40  0     0  0            999 V2000
    5.2463   -1.1373   -2.0323 C   0  0  0  0  0  0  0  0  0  0  0  0
    3.7714   -1.1827   -1.6870 C   0  0  0  0  0  0  0  0  0  0  0  0
    3.4990   -0.1148   -0.7620 O   0  0  0  0  0  0  0  0  0  0  0  0
    2.0064    0.3461   -0.4363 P   0  0  0  0  0  0  0  0  0  0  0  0
    0.9946    0.7761   -2.0595 S   0  0  0  0  0  0  0  0  0  0  0  0
    2.2736    1.5841    0.4841 O   0  0  0  0  0  0  0  0  0  0  0  0
    2.5990    1.5695    1.8956 C   0  0  0  0  0  0  0  0  0  0  0  0
    3.7702    0.6695    2.2203 C   0  0  0  0  0  0  0  0  0  0  0  0
    1.2439   -1.2736    0.7202 S   0  0  0  0  0  0  0  0  0  0  0  0
   -0.0670   -1.8645   -0.3925 C   0  0  0  0  0  0  0  0  0  0  0  0
   -1.7398   -1.7788    0.2966 S   0  0  0  0  0  0  0  0  0  0  0  0
   -2.0960    0.3172    0.2710 P   0  0  0  0  0  0  0  0  0  0  0  0
   -0.8154    1.4962    1.1736 S   0  0  0  0  0  0  0  0  0  0  0  0
   -3.5849    0.4153    0.8081 O   0  0  0  0  0  0  0  0  0  0  0  0
   -4.0994   -0.2394    1.9834 C   0  0  0  0  0  0  0  0  0  0  0  0
   -3.2531    0.0009    3.2155 C   0  0  0  0  0  0  0  0  0  0  0  0
   -2.2282    0.7789   -1.2269 O   0  0  0  0  0  0  0  0  0  0  0  0
   -2.8401    0.0696   -2.3318 C   0  0  0  0  0  0  0  0  0  0  0  0
   -4.2523   -0.3947   -2.0480 C   0  0  0  0  0  0  0  0  0  0  0  0
    5.4921   -0.1817   -2.4867 H   0  0  0  0  0  0  0  0  0  0  0  0
    5.8425   -1.2633   -1.1334 H   0  0  0  0  0  0  0  0  0  0  0  0
    5.4732   -1.9359   -2.7308 H   0  0  0  0  0  0  0  0  0  0  0  0
    3.5043   -2.1281   -1.2055 H   0  0  0  0  0  0  0  0  0  0  0  0
    3.1472   -1.0416   -2.5764 H   0  0  0  0  0  0  0  0  0  0  0  0
    2.8198    2.6172    2.1045 H   0  0  0  0  0  0  0  0  0  0  0  0
    1.6975    1.2751    2.4403 H   0  0  0  0  0  0  0  0  0  0  0  0
    4.0180    0.7821    3.2712 H   0  0  0  0  0  0  0  0  0  0  0  0
    3.5135   -0.3713    2.0283 H   0  0  0  0  0  0  0  0  0  0  0  0
    4.6301    0.9408    1.6132 H   0  0  0  0  0  0  0  0  0  0  0  0
    0.1068   -2.9211   -0.5790 H   0  0  0  0  0  0  0  0  0  0  0  0
   -0.0138   -1.2773   -1.3143 H   0  0  0  0  0  0  0  0  0  0  0  0
   -5.0977    0.1869    2.0963 H   0  0  0  0  0  0  0  0  0  0  0  0
   -4.1732   -1.3092    1.7693 H   0  0  0  0  0  0  0  0  0  0  0  0
   -3.1297    1.0674    3.3896 H   0  0  0  0  0  0  0  0  0  0  0  0
   -3.7338   -0.4524    4.0764 H   0  0  0  0  0  0  0  0  0  0  0  0
   -2.2656   -0.4405    3.0864 H   0  0  0  0  0  0  0  0  0  0  0  0
   -2.8097    0.8058   -3.1369 H   0  0  0  0  0  0  0  0  0  0  0  0
   -2.1939   -0.7724   -2.5931 H   0  0  0  0  0  0  0  0  0  0  0  0
   -4.2546   -1.1796   -1.2948 H   0  0  0  0  0  0  0  0  0  0  0  0
   -4.8576    0.4369   -1.6968 H   0  0  0  0  0  0  0  0  0  0  0  0
   -4.6793   -0.7863   -2.9663 H   0  0  0  0  0  0  0  0  0  0  0  0
  1  2  1  0  0  0  0
  2  3  1  0  0  0  0
  3  4  2  0  0  0  0
  4  5  2  0  0  0  0
  4  6  2  0  0  0  0
  6  7  1  0  0  0  0
  7  8  1  0  0  0  0
  4  9  1  0  0  0  0
  9 10  1  0  0  0  0
 10 11  1  0  0  0  0
 11 12  1  0  0  0  0
 12 13  2  0  0  0  0
 12 14  2  0  0  0  0
 14 15  1  0  0  0  0
 15 16  1  0  0  0  0
 12 17  2  0  0  0  0
 17 18  1  0  0  0  0
 18 19  1  0  0  0  0
  1 20  1  0  0  0  0
  1 21  1  0  0  0  0
  1 22  1  0  0  0  0
  2 23  1  0  0  0  0
  2 24  1  0  0  0  0
  7 25  1  0  0  0  0
  7 26  1  0  0  0  0
  8 27  1  0  0  0  0
  8 28  1  0  0  0  0
  8 29  1  0  0  0  0
 10 30  1  0  0  0  0
 10 31  1  0  0  0  0
 15 32  1  0  0  0  0
 15 33  1  0  0  0  0
 16 34  1  0  0  0  0
 16 35  1  0  0  0  0
 16 36  1  0  0  0  0
 18 37  1  0  0  0  0
 18 38  1  0  0  0  0
 19 39  1  0  0  0  0
 19 40  1  0  0  0  0
 19 41  1  0  0  0  0
M  END
