 xtb: 6.7.1 (edcfbbe)
          04092505203D

 41 40  0     0  0            999 V2000
    2.5859    0.7432   -3.4129 C   0  0  0  0  0  0  0  0  0  0  0  0
    2.9847    0.1232   -2.0909 C   0  0  0  0  0  0  0  0  0  0  0  0
    2.2956    0.8485   -1.0398 O   0  0  0  0  0  0  0  0  0  0  0  0
    2.0658    0.2648    0.3995 P   0  0  0  0  0  0  0  0  0  0  0  0
    1.0855    1.4664    1.5868 S   0  0  0  0  0  0  0  0  0  0  0  0
    3.5802    0.0061    0.8453 O   0  0  0  0  0  0  0  0  0  0  0  0
    3.9907   -0.1663    2.2108 C   0  0  0  0  0  0  0  0  0  0  0  0
    3.4389   -1.4347    2.8302 C   0  0  0  0  0  0  0  0  0  0  0  0
    1.2742   -1.7000    0.1257 S   0  0  0  0  0  0  0  0  0  0  0  0
   -0.1153   -1.6655    1.3009 C   0  0  0  0  0  0  0  0  0  0  0  0
   -1.7400   -1.8994    0.5293 S   0  0  0  0  0  0  0  0  0  0  0  0
   -2.0525    0.0357   -0.2531 P   0  0  0  0  0  0  0  0  0  0  0  0
   -0.7962    0.6434   -1.6397 S   0  0  0  0  0  0  0  0  0  0  0  0
   -2.1345    0.8288    1.1142 O   0  0  0  0  0  0  0  0  0  0  0  0
   -2.7913    2.0984    1.3090 C   0  0  0  0  0  0  0  0  0  0  0  0
   -2.2241    3.1886    0.4250 C   0  0  0  0  0  0  0  0  0  0  0  0
   -3.5675    0.0360   -0.7303 O   0  0  0  0  0  0  0  0  0  0  0  0
   -3.9490   -0.3425   -2.0640 C   0  0  0  0  0  0  0  0  0  0  0  0
   -3.7621   -1.8268   -2.3001 C   0  0  0  0  0  0  0  0  0  0  0  0
    2.8835    1.7873   -3.4409 H   0  0  0  0  0  0  0  0  0  0  0  0
    3.0684    0.2041   -4.2214 H   0  0  0  0  0  0  0  0  0  0  0  0
    1.5061    0.6877   -3.5317 H   0  0  0  0  0  0  0  0  0  0  0  0
    4.0570    0.2094   -1.9040 H   0  0  0  0  0  0  0  0  0  0  0  0
    2.6885   -0.9289   -2.0399 H   0  0  0  0  0  0  0  0  0  0  0  0
    5.0798   -0.1899    2.1505 H   0  0  0  0  0  0  0  0  0  0  0  0
    3.6694    0.7117    2.7801 H   0  0  0  0  0  0  0  0  0  0  0  0
    3.6472   -2.2894    2.1917 H   0  0  0  0  0  0  0  0  0  0  0  0
    3.9013   -1.5873    3.8001 H   0  0  0  0  0  0  0  0  0  0  0  0
    2.3621   -1.3449    2.9652 H   0  0  0  0  0  0  0  0  0  0  0  0
   -0.1025   -0.7124    1.8363 H   0  0  0  0  0  0  0  0  0  0  0  0
    0.0051   -2.5091    1.9754 H   0  0  0  0  0  0  0  0  0  0  0  0
   -3.8590    1.9583    1.1260 H   0  0  0  0  0  0  0  0  0  0  0  0
   -2.6131    2.3125    2.3643 H   0  0  0  0  0  0  0  0  0  0  0  0
   -2.6916    4.1361    0.6732 H   0  0  0  0  0  0  0  0  0  0  0  0
   -1.1489    3.2687    0.5756 H   0  0  0  0  0  0  0  0  0  0  0  0
   -2.4107    2.9612   -0.6241 H   0  0  0  0  0  0  0  0  0  0  0  0
   -4.9974   -0.0489   -2.1307 H   0  0  0  0  0  0  0  0  0  0  0  0
   -3.3504    0.2388   -2.7732 H   0  0  0  0  0  0  0  0  0  0  0  0
   -4.1587   -2.0898   -3.2754 H   0  0  0  0  0  0  0  0  0  0  0  0
   -2.7016   -2.0748   -2.2703 H   0  0  0  0  0  0  0  0  0  0  0  0
   -4.2753   -2.3994   -1.5319 H   0  0  0  0  0  0  0  0  0  0  0  0
  1  2  1  0  0  0  0
  2  3  1  0  0  0  0
  3  4  2  0  0  0  0
  4  5  2  0  0  0  0
  4  6  2  0  0  0  0
  6  7  1  0  0  0  0
  7  8  1  0  0  0  0
  4  9  1  0  0  0  0
  9 10  1  0  0  0  0
 10 11  1  0  0  0  0
 11 12  1  0  0  0  0
 12 13  2  0  0  0  0
 12 14  2  0  0  0  0
 14 15  1  0  0  0  0
 15 16  1  0  0  0  0
 12 17  2  0  0  0  0
 17 18  1  0  0  0  0
 18 19  1  0  0  0  0
  1 20  1  0  0  0  0
  1 21  1  0  0  0  0
  1 22  1  0  0  0  0
  2 23  1  0  0  0  0
  2 24  1  0  0  0  0
  7 25  1  0  0  0  0
  7 26  1  0  0  0  0
  8 27  1  0  0  0  0
  8 28  1  0  0  0  0
  8 29  1  0  0  0  0
 10 30  1  0  0  0  0
 10 31  1  0  0  0  0
 15 32  1  0  0  0  0
 15 33  1  0  0  0  0
 16 34  1  0  0  0  0
 16 35  1  0  0  0  0
 16 36  1  0  0  0  0
 18 37  1  0  0  0  0
 18 38  1  0  0  0  0
 19 39  1  0  0  0  0
 19 40  1  0  0  0  0
 19 41  1  0  0  0  0
M  END
