38
 xtb: 6.7.1 (edcfbbe)
C            5.13216067750942       -2.27700774987087       -0.87817993788398
C            3.85220837704277       -2.83097501835372       -1.45703434712976
O            2.97113396668937       -1.74468512654639       -1.90281860284114
C            2.21295141942473       -1.15784836885845       -0.96872975273463
O            2.16774545899896       -1.49882670574272        0.20084334741049
C            1.43606067902147       -0.00172287253737       -1.54444240661024
C            0.30969721716184        0.47198010729229       -0.62899766484143
H           -0.11430781100681        1.39115515486670       -1.05204424786605
C            0.77170110337577        0.81888903070214        0.78274146848850
O            0.18532245864904        0.53676836771861        1.80854950912354
O            1.88121364974986        1.56120828376780        0.72745976861279
C            2.42197027171888        2.01412823791705        2.01494024799676
C            3.66485330154299        2.80963503552563        1.71558193346866
S           -1.03445632276434       -0.79074668465189       -0.63195813173856
P           -2.70138199283248        0.32086972928867        0.06764955326848
S           -2.68735907048948        2.22213569252671       -0.32747525580536
O           -3.90260987025562       -0.57329513946892       -0.53436901171440
C           -4.23700278078102       -0.48814948625018       -1.94846419422222
O           -2.89529597895930        0.04862142232896        1.63555608394609
C           -2.81213109793972       -1.29848566934855        2.18940126462827
H            4.94101753479507       -1.68653248308952        0.02192580649431
H            5.78911792222112       -3.11013719511910       -0.60912227775127
H            5.65177241533729       -1.65337338908729       -1.61112579203176
H            3.30606846582371       -3.45045006692041       -0.74190421190002
H            4.03580610858267       -3.40465606493007       -2.36674089976278
H            1.05184839842620       -0.26175703004000       -2.53407292182690
H            2.14502918158607        0.82091058375325       -1.69380047144149
H            1.65478236054918        2.61442542787684        2.51207548310964
H            2.63324627360359        1.12788924210350        2.62028149300132
H            4.41065280064256        2.19611789968652        1.20215013740342
H            3.43488994859878        3.68348583409560        1.09943139188326
H            4.09685625791549        3.15824034916943        2.65832847311579
H           -4.61023412724136        0.51221343656151       -2.18110443740961
H           -5.01857340987987       -1.23063624821545       -2.10903240744881
H           -3.36467593770377       -0.72330365715310       -2.56427775565580
H           -1.79753733784256       -1.68698998738010        2.07179871311245
H           -3.53698018270580       -1.95674644446462        1.70466669442672
H           -3.05167016337471       -1.19050777556678        3.24712112615087
