38
 xtb: 6.7.1 (edcfbbe)
C            3.28186864265172       -4.07055965493171       -1.24915731449668
C            4.04345964247416       -2.78455402116038       -1.46755577884099
O            3.14765735308593       -1.72529809277026       -1.94788131492213
C            2.44293370372169       -1.06338072620183       -1.02272026488373
O            2.50319657645319       -1.27583120750167        0.17606104865002
C            1.59534391014438        0.01492241586830       -1.64807840668990
C            0.47987017794858        0.50646841642244       -0.72770914495471
H           -0.00109596903635        1.36842239370647       -1.20538926822917
C            0.97226832766113        0.98912369589329        0.63331749125798
O            0.47950282456868        0.70350008480370        1.70515933985301
O            1.98552054179006        1.84625196293946        0.46182954908386
C            2.50344647606774        2.50739352538234        1.66588434270928
C            1.64065507350769        3.69044763420754        2.03570230977365
S           -0.79663532385072       -0.81557796099077       -0.58312022213851
P           -2.45495994297899        0.25033179025364        0.20437596565089
S           -2.53379583372122        2.14310952068407       -0.22170221786561
O           -3.66260546976336       -0.69299237659803       -0.30201870454102
C           -4.08243093085559       -0.65530843073569       -1.69491236142875
O           -2.53881451597893        0.00081958268545        1.78623764659650
C           -2.35129995936588       -1.32834232276315        2.35772951174273
H            2.53745039003702       -3.96585279613307       -0.45552071426662
H            2.78177857964867       -4.38655709453445       -2.16911873444039
H            3.98786194086748       -4.85414321066368       -0.95657649269031
H            4.77926713351642       -2.88345793787659       -2.26714909245820
H            4.53952443184175       -2.43544872454707       -0.55888712511139
H            1.18857759795192       -0.32892680174123       -2.60213476509084
H            2.26182386658812        0.85446195018136       -1.87792614103221
H            2.56596193308003        1.76860342908397        2.46828395909110
H            3.50974785006993        2.81578776239933        1.37821964566722
H            1.58385431115514        4.40210945530455        1.20717332495817
H            0.62905294234127        3.37834858895860        2.30871823340020
H            2.08689255500247        4.19962174472001        2.89571685216811
H           -4.49673086645116        0.32806857788462       -1.93098616112995
H           -4.85148548562354       -1.42191423295053       -1.78943280309370
H           -3.24216378263029       -0.88437803592585       -2.35598674127130
H           -2.57061295284349       -1.21870835913262        3.41986432356252
H           -1.31592395037747       -1.64901388094682        2.21857700148203
H           -3.04201106092592       -2.04290247172767        1.90330397400371
