 xtb: 6.7.1 (edcfbbe)
          04032519413D

 20 19  0     0  0            999 V2000
   -1.2369    0.9631   -1.2563 C   0  0  0  0  0  0  0  0  0  0  0  0
   -1.0134    0.1128   -0.0000 C   0  0  0  0  0  0  0  0  0  0  0  0
   -1.9497   -1.0945    0.0000 C   0  0  0  0  0  0  0  0  0  0  0  0
   -1.2363    0.9628    1.2567 C   0  0  0  0  0  0  0  0  0  0  0  0
    0.4294   -0.3691   -0.0002 C   0  0  0  0  0  0  0  0  0  0  0  0
    0.7798   -1.5308   -0.0001 O   0  0  0  0  0  0  0  0  0  0  0  0
    1.2936    0.6401   -0.0002 O   0  0  0  0  0  0  0  0  0  0  0  0
    2.6842    0.3130    0.0001 C   0  0  0  0  0  0  0  0  0  0  0  0
   -1.0628    0.3711   -2.1522 H   0  0  0  0  0  0  0  0  0  0  0  0
   -2.2615    1.3241   -1.2726 H   0  0  0  0  0  0  0  0  0  0  0  0
   -0.5618    1.8144   -1.2628 H   0  0  0  0  0  0  0  0  0  0  0  0
   -2.9837   -0.7626   -0.0019 H   0  0  0  0  0  0  0  0  0  0  0  0
   -1.7756   -1.7091    0.8799 H   0  0  0  0  0  0  0  0  0  0  0  0
   -1.7729   -1.7111   -0.8779 H   0  0  0  0  0  0  0  0  0  0  0  0
   -1.0597    0.3712    2.1523 H   0  0  0  0  0  0  0  0  0  0  0  0
   -0.5628    1.8153    1.2619 H   0  0  0  0  0  0  0  0  0  0  0  0
   -2.2616    1.3219    1.2747 H   0  0  0  0  0  0  0  0  0  0  0  0
    2.9315   -0.2661   -0.8905 H   0  0  0  0  0  0  0  0  0  0  0  0
    2.9288   -0.2768    0.8844 H   0  0  0  0  0  0  0  0  0  0  0  0
    3.2087    1.2632    0.0065 H   0  0  0  0  0  0  0  0  0  0  0  0
  1  2  1  0  0  0  0
  2  3  1  0  0  0  0
  2  4  1  0  0  0  0
  2  5  1  0  0  0  0
  5  6  2  0  0  0  0
  5  7  1  0  0  0  0
  7  8  1  0  0  0  0
  1  9  1  0  0  0  0
  1 10  1  0  0  0  0
  1 11  1  0  0  0  0
  3 12  1  0  0  0  0
  3 13  1  0  0  0  0
  3 14  1  0  0  0  0
  4 15  1  0  0  0  0
  4 16  1  0  0  0  0
  4 17  1  0  0  0  0
  8 18  1  0  0  0  0
  8 19  1  0  0  0  0
  8 20  1  0  0  0  0
M  END
