 xtb: 6.7.1 (edcfbbe)
          04092505203D

 41 40  0     0  0            999 V2000
    4.4735    0.0819   -1.8537 C   0  0  0  0  0  0  0  0  0  0  0  0
    4.7639   -0.1135   -0.3793 C   0  0  0  0  0  0  0  0  0  0  0  0
    3.6653   -0.7229    0.3175 O   0  0  0  0  0  0  0  0  0  0  0  0
    2.2772    0.0261    0.5323 P   0  0  0  0  0  0  0  0  0  0  0  0
    2.4504    1.9338    0.9212 S   0  0  0  0  0  0  0  0  0  0  0  0
    1.6462   -0.7616    1.7473 O   0  0  0  0  0  0  0  0  0  0  0  0
    1.1605   -2.1258    1.7405 C   0  0  0  0  0  0  0  0  0  0  0  0
    2.2049   -3.1300    1.3046 C   0  0  0  0  0  0  0  0  0  0  0  0
    1.0935   -0.5259   -1.1637 S   0  0  0  0  0  0  0  0  0  0  0  0
    0.2387    1.0531   -1.4030 C   0  0  0  0  0  0  0  0  0  0  0  0
   -0.9199    1.4593   -0.0757 S   0  0  0  0  0  0  0  0  0  0  0  0
   -2.3209   -0.1191   -0.4229 P   0  0  0  0  0  0  0  0  0  0  0  0
   -2.3583   -0.8254   -2.2473 S   0  0  0  0  0  0  0  0  0  0  0  0
   -3.7041    0.4421    0.1234 O   0  0  0  0  0  0  0  0  0  0  0  0
   -4.6168    1.1744   -0.7139 C   0  0  0  0  0  0  0  0  0  0  0  0
   -4.0536    2.5106   -1.1518 C   0  0  0  0  0  0  0  0  0  0  0  0
   -1.9813   -1.2406    0.6432 O   0  0  0  0  0  0  0  0  0  0  0  0
   -2.4178   -1.2376    2.0251 C   0  0  0  0  0  0  0  0  0  0  0  0
   -1.8612   -0.0693    2.8122 C   0  0  0  0  0  0  0  0  0  0  0  0
    4.1411   -0.8505   -2.3033 H   0  0  0  0  0  0  0  0  0  0  0  0
    3.6949    0.8323   -1.9834 H   0  0  0  0  0  0  0  0  0  0  0  0
    5.3740    0.4225   -2.3547 H   0  0  0  0  0  0  0  0  0  0  0  0
    4.9865    0.8460    0.0982 H   0  0  0  0  0  0  0  0  0  0  0  0
    5.5902   -0.8078   -0.2210 H   0  0  0  0  0  0  0  0  0  0  0  0
    0.8619   -2.2847    2.7782 H   0  0  0  0  0  0  0  0  0  0  0  0
    0.2848   -2.1757    1.0870 H   0  0  0  0  0  0  0  0  0  0  0  0
    1.8107   -4.1316    1.4478 H   0  0  0  0  0  0  0  0  0  0  0  0
    2.4449   -2.9924    0.2523 H   0  0  0  0  0  0  0  0  0  0  0  0
    3.1114   -3.0111    1.8922 H   0  0  0  0  0  0  0  0  0  0  0  0
   -0.2973    0.9596   -2.3469 H   0  0  0  0  0  0  0  0  0  0  0  0
    0.9619    1.8669   -1.4256 H   0  0  0  0  0  0  0  0  0  0  0  0
   -4.8569    0.5559   -1.5841 H   0  0  0  0  0  0  0  0  0  0  0  0
   -5.5016    1.2962   -0.0874 H   0  0  0  0  0  0  0  0  0  0  0  0
   -3.7089    3.0799   -0.2922 H   0  0  0  0  0  0  0  0  0  0  0  0
   -3.2156    2.3567   -1.8300 H   0  0  0  0  0  0  0  0  0  0  0  0
   -4.8249    3.0714   -1.6698 H   0  0  0  0  0  0  0  0  0  0  0  0
   -3.5090   -1.2264    2.0370 H   0  0  0  0  0  0  0  0  0  0  0  0
   -2.0518   -2.1925    2.4054 H   0  0  0  0  0  0  0  0  0  0  0  0
   -2.2651    0.8684    2.4347 H   0  0  0  0  0  0  0  0  0  0  0  0
   -2.1416   -0.1793    3.8551 H   0  0  0  0  0  0  0  0  0  0  0  0
   -0.7762   -0.0312    2.7386 H   0  0  0  0  0  0  0  0  0  0  0  0
  1  2  1  0  0  0  0
  2  3  1  0  0  0  0
  3  4  2  0  0  0  0
  4  5  2  0  0  0  0
  4  6  2  0  0  0  0
  6  7  1  0  0  0  0
  7  8  1  0  0  0  0
  4  9  1  0  0  0  0
  9 10  1  0  0  0  0
 10 11  1  0  0  0  0
 11 12  1  0  0  0  0
 12 13  2  0  0  0  0
 12 14  2  0  0  0  0
 14 15  1  0  0  0  0
 15 16  1  0  0  0  0
 12 17  2  0  0  0  0
 17 18  1  0  0  0  0
 18 19  1  0  0  0  0
  1 20  1  0  0  0  0
  1 21  1  0  0  0  0
  1 22  1  0  0  0  0
  2 23  1  0  0  0  0
  2 24  1  0  0  0  0
  7 25  1  0  0  0  0
  7 26  1  0  0  0  0
  8 27  1  0  0  0  0
  8 28  1  0  0  0  0
  8 29  1  0  0  0  0
 10 30  1  0  0  0  0
 10 31  1  0  0  0  0
 15 32  1  0  0  0  0
 15 33  1  0  0  0  0
 16 34  1  0  0  0  0
 16 35  1  0  0  0  0
 16 36  1  0  0  0  0
 18 37  1  0  0  0  0
 18 38  1  0  0  0  0
 19 39  1  0  0  0  0
 19 40  1  0  0  0  0
 19 41  1  0  0  0  0
M  END
