8
CONF1
C -0.6377465671 -0.9119316222 0.3973166206
C 0.3918717255 -0.1261567085 -0.3784856924
Cl 2.0150939056 -0.8343056123 0.0140963154
Cl 0.3733690822 1.6273118711 0.0501256367
Cl -2.3120871402 -0.3694405638 -0.0594350416
H -0.5634703740 -1.9671181588 0.1276198118
H -0.5248176521 -0.7813604739 1.4743361551
H 0.2626117306 -0.1969869833 -1.4586478292
8
CONF2
C -0.8422949151 -0.6091009146 -0.9353560832
C 0.5135166779 0.0266873267 -0.7783465274
Cl 1.5565872535 -0.8735994760 0.3921413515
Cl 0.3991390310 1.7627224061 -0.2871326298
Cl -1.8078129685 -0.6471430535 0.5956641916
H -1.4169868982 -0.0479065988 -1.6754300294
H -0.7158091832 -1.6402280750 -1.2727281470
H 1.0271128301 0.0037117811 -1.7421752162
