 xtb: 6.7.1 (edcfbbe)
          04032520213D

 18 18  0     0  0            999 V2000
   -2.9038   -0.0093   -0.0012 C   0  0  0  0  0  0  0  0  0  0  0  0
   -1.4050    0.0058    0.0021 C   0  0  0  0  0  0  0  0  0  0  0  0
   -0.6924    1.1958    0.0011 C   0  0  0  0  0  0  0  0  0  0  0  0
    0.6924    1.1957   -0.0008 C   0  0  0  0  0  0  0  0  0  0  0  0
    1.4050    0.0057   -0.0020 C   0  0  0  0  0  0  0  0  0  0  0  0
    0.6903   -1.1880   -0.0007 C   0  0  0  0  0  0  0  0  0  0  0  0
   -0.6904   -1.1880    0.0012 C   0  0  0  0  0  0  0  0  0  0  0  0
    2.9038   -0.0093    0.0004 C   0  0  0  0  0  0  0  0  0  0  0  0
   -3.2793   -0.5884    0.8408 H   0  0  0  0  0  0  0  0  0  0  0  0
   -3.3022    0.9997    0.0627 H   0  0  0  0  0  0  0  0  0  0  0  0
   -3.2738   -0.4723   -0.9151 H   0  0  0  0  0  0  0  0  0  0  0  0
   -1.2241    2.1369    0.0022 H   0  0  0  0  0  0  0  0  0  0  0  0
    1.2242    2.1368   -0.0012 H   0  0  0  0  0  0  0  0  0  0  0  0
    1.2267   -2.1264   -0.0016 H   0  0  0  0  0  0  0  0  0  0  0  0
   -1.2269   -2.1263    0.0019 H   0  0  0  0  0  0  0  0  0  0  0  0
    3.3022    0.9991   -0.0738 H   0  0  0  0  0  0  0  0  0  0  0  0
    3.2743   -0.4628    0.9188 H   0  0  0  0  0  0  0  0  0  0  0  0
    3.2788   -0.5971   -0.8358 H   0  0  0  0  0  0  0  0  0  0  0  0
  1  2  1  0  0  0  0
  2  3  4  0  0  0  0
  3  4  4  0  0  0  0
  4  5  4  0  0  0  0
  5  6  4  0  0  0  0
  2  7  4  0  0  0  0
  6  7  4  0  0  0  0
  5  8  1  0  0  0  0
  1  9  1  0  0  0  0
  1 10  1  0  0  0  0
  1 11  1  0  0  0  0
  3 12  1  0  0  0  0
  4 13  1  0  0  0  0
  6 14  1  0  0  0  0
  7 15  1  0  0  0  0
  8 16  1  0  0  0  0
  8 17  1  0  0  0  0
  8 18  1  0  0  0  0
M  END
