 xtb: 6.7.1 (edcfbbe)
          04092505213D

 41 40  0     0  0            999 V2000
    1.9110    3.1021    1.3455 C   0  0  0  0  0  0  0  0  0  0  0  0
    2.4115    1.7176    1.7053 C   0  0  0  0  0  0  0  0  0  0  0  0
    2.4683    0.9306    0.4939 O   0  0  0  0  0  0  0  0  0  0  0  0
    2.1443   -0.6152    0.4426 P   0  0  0  0  0  0  0  0  0  0  0  0
    0.6956   -1.2366    1.6195 S   0  0  0  0  0  0  0  0  0  0  0  0
    3.5660   -1.2412    0.7907 O   0  0  0  0  0  0  0  0  0  0  0  0
    3.7401   -2.6197    1.1588 C   0  0  0  0  0  0  0  0  0  0  0  0
    3.4369   -3.5591    0.0093 C   0  0  0  0  0  0  0  0  0  0  0  0
    1.9567   -0.8482   -1.6407 S   0  0  0  0  0  0  0  0  0  0  0  0
    0.1645   -0.6352   -1.7745 C   0  0  0  0  0  0  0  0  0  0  0  0
   -0.3930    0.9620   -1.1072 S   0  0  0  0  0  0  0  0  0  0  0  0
   -2.3291    0.3556   -0.4266 P   0  0  0  0  0  0  0  0  0  0  0  0
   -2.6061   -1.5621   -0.1684 S   0  0  0  0  0  0  0  0  0  0  0  0
   -3.3591    0.8916   -1.4889 O   0  0  0  0  0  0  0  0  0  0  0  0
   -3.4015    2.2645   -1.9566 C   0  0  0  0  0  0  0  0  0  0  0  0
   -2.9063    2.3407   -3.3872 C   0  0  0  0  0  0  0  0  0  0  0  0
   -2.5983    1.3567    0.7799 O   0  0  0  0  0  0  0  0  0  0  0  0
   -1.8641    1.3894    2.0155 C   0  0  0  0  0  0  0  0  0  0  0  0
   -2.3730    0.3531    2.9967 C   0  0  0  0  0  0  0  0  0  0  0  0
    1.8657    3.7100    2.2430 H   0  0  0  0  0  0  0  0  0  0  0  0
    2.5841    3.5624    0.6286 H   0  0  0  0  0  0  0  0  0  0  0  0
    0.9216    3.0394    0.8991 H   0  0  0  0  0  0  0  0  0  0  0  0
    1.7455    1.2188    2.4187 H   0  0  0  0  0  0  0  0  0  0  0  0
    3.4207    1.7509    2.1213 H   0  0  0  0  0  0  0  0  0  0  0  0
    4.7856   -2.6792    1.4640 H   0  0  0  0  0  0  0  0  0  0  0  0
    3.0896   -2.8339    2.0131 H   0  0  0  0  0  0  0  0  0  0  0  0
    4.0037   -3.2721   -0.8729 H   0  0  0  0  0  0  0  0  0  0  0  0
    3.6983   -4.5733    0.2941 H   0  0  0  0  0  0  0  0  0  0  0  0
    2.3743   -3.5245   -0.2301 H   0  0  0  0  0  0  0  0  0  0  0  0
   -0.3519   -1.4276   -1.2235 H   0  0  0  0  0  0  0  0  0  0  0  0
   -0.0622   -0.6879   -2.8368 H   0  0  0  0  0  0  0  0  0  0  0  0
   -4.4513    2.5519   -1.8830 H   0  0  0  0  0  0  0  0  0  0  0  0
   -2.8015    2.8899   -1.2926 H   0  0  0  0  0  0  0  0  0  0  0  0
   -3.0559    3.3487   -3.7608 H   0  0  0  0  0  0  0  0  0  0  0  0
   -1.8479    2.0976   -3.4381 H   0  0  0  0  0  0  0  0  0  0  0  0
   -3.4598    1.6421   -4.0084 H   0  0  0  0  0  0  0  0  0  0  0  0
   -0.8024    1.2310    1.8082 H   0  0  0  0  0  0  0  0  0  0  0  0
   -2.0208    2.4029    2.3900 H   0  0  0  0  0  0  0  0  0  0  0  0
   -1.8728    0.4869    3.9505 H   0  0  0  0  0  0  0  0  0  0  0  0
   -3.4462    0.4569    3.1306 H   0  0  0  0  0  0  0  0  0  0  0  0
   -2.1589   -0.6494    2.6302 H   0  0  0  0  0  0  0  0  0  0  0  0
  1  2  1  0  0  0  0
  2  3  1  0  0  0  0
  3  4  2  0  0  0  0
  4  5  2  0  0  0  0
  4  6  2  0  0  0  0
  6  7  1  0  0  0  0
  7  8  1  0  0  0  0
  4  9  1  0  0  0  0
  9 10  1  0  0  0  0
 10 11  1  0  0  0  0
 11 12  1  0  0  0  0
 12 13  2  0  0  0  0
 12 14  2  0  0  0  0
 14 15  1  0  0  0  0
 15 16  1  0  0  0  0
 12 17  2  0  0  0  0
 17 18  1  0  0  0  0
 18 19  1  0  0  0  0
  1 20  1  0  0  0  0
  1 21  1  0  0  0  0
  1 22  1  0  0  0  0
  2 23  1  0  0  0  0
  2 24  1  0  0  0  0
  7 25  1  0  0  0  0
  7 26  1  0  0  0  0
  8 27  1  0  0  0  0
  8 28  1  0  0  0  0
  8 29  1  0  0  0  0
 10 30  1  0  0  0  0
 10 31  1  0  0  0  0
 15 32  1  0  0  0  0
 15 33  1  0  0  0  0
 16 34  1  0  0  0  0
 16 35  1  0  0  0  0
 16 36  1  0  0  0  0
 18 37  1  0  0  0  0
 18 38  1  0  0  0  0
 19 39  1  0  0  0  0
 19 40  1  0  0  0  0
 19 41  1  0  0  0  0
M  END
