  35
 
 C         -3.9942640902       -0.3595165616       -1.6872723007
 C         -2.9688971473        0.6154572139       -1.1118254834
 N         -2.2788540063        0.0213613228        0.0144218685
 C         -3.0991435119       -0.4749486728        1.1026242802
 C         -4.0420563284        0.6165223836        1.6083701367
 C         -0.9401436751       -0.0319840698        0.0711917741
 C         -0.2568257013       -1.1610476112        0.6143151742
 C          1.1329779790       -1.1681204484        0.7218574470
 C          1.9019619467       -0.1769296433        0.1681145437
 C          1.3052446770        0.9365181963       -0.4971488116
 C         -0.1212717357        1.0405680521       -0.4137384966
 N         -0.6900949359        2.3159982338       -0.5700070783
 O         -0.1258640040        3.1578687744       -1.2765566743
 O         -1.7048532332        2.5997340400        0.0554882427
 N          2.0454035623        1.8389984614       -1.1191165635
 C          3.3930289235       -0.2869425347        0.2345546086
 F          3.8171078779       -1.3570614469        0.9127468900
 F          3.9757631304       -0.3637481081       -0.9848023339
 F          3.9751180114        0.7833062123        0.8267457079
 N         -0.8813552641       -2.4048359640        0.8495431332
 O         -1.9168055254       -2.6754318085        0.2545103450
 O         -0.3197813479       -3.2078297575        1.5914120271
 H         -4.3249442541        0.0102612783       -2.6530678009
 H         -3.5411432047       -1.3387912794       -1.8213092999
 H         -4.8619785774       -0.4612839280       -1.0448590659
 H         -3.4486366322        1.5563117982       -0.8223636981
 H         -2.2301209757        0.8348310991       -1.8852438274
 H         -3.6604436156       -1.3613975598        0.7936567554
 H         -2.4387849484       -0.7609467477        1.9231394766
 H         -4.4600206376        0.3023774441        2.5599365530
 H         -3.4934455345        1.5439353273        1.7537690393
 H         -4.8596493570        0.7970826632        0.9190237983
 H          1.5963311600       -2.0291016453        1.1813874815
 H          1.5793462691        2.6434094692       -1.5342470837
 H          3.0507652109        1.8276909396       -1.0740169819
          35
        -72.20735826
 C         -4.0231083372        0.5467655651       -1.8344682037
 C         -3.0136734588        1.1676313991       -0.8700889333
 N         -2.3779499731        0.1365051087       -0.0750713037
 C         -3.2798829047       -0.6878374894        0.7050199595
 C         -2.7264386726       -1.0188064098        2.0856595198
 C         -1.0418020022        0.0160567598       -0.0254813926
 C         -0.3767764866       -1.2429620612        0.0300137720
 C          1.0144590312       -1.3113378667        0.1067922956
 C          1.8013089861       -0.1976030216       -0.0302663930
 C          1.2227373990        1.0990223526       -0.1784119919
 C         -0.1986355311        1.1796249328       -0.0318410146
 N         -0.7405620371        2.4094016521        0.3760018197
 O         -0.1612691706        3.4622655214        0.0887774837
 O         -1.7486079472        2.4177199738        1.0742222961
 N          1.9751907442        2.1650839031       -0.3967463791
 C          3.2896571347       -0.3515038642       -0.0478433567
 F          3.6966606381       -1.6097115167        0.1433327365
 F          3.8505768477        0.0485867988       -1.2128605690
 F          3.9090715204        0.3876702987        0.9032496912
 N         -1.0175307692       -2.4789688707       -0.1932840210
 O         -2.0598893383       -2.5039536966       -0.8361690251
 O         -0.4665005152       -3.5048149036        0.2057223245
 H         -3.5604559439       -0.2730565601       -2.3779104215
 H         -4.8995590736        0.1690280901       -1.3192351603
 H         -4.3421745711        1.3043378930       -2.5435935778
 H         -3.5017734792        1.9026771678       -0.2191765690
 H         -2.2493314634        1.6804472366       -1.4565147468
 H         -4.1872305594       -0.0972966442        0.8310022620
 H         -3.5411055265       -1.6086843907        0.1682038349
 H         -2.3315982053       -0.1179674452        2.5508770759
 H         -3.5308654881       -1.4068021760        2.7030634506
 H         -1.9403459778       -1.7694395211        2.0590933241
 H          1.4626205325       -2.2907647387        0.1918656914
 H          1.5224692910        3.0762320271       -0.4301960794
 H          2.9804763382        2.1211948924       -0.3759400485
