 xtb: 6.7.1 (edcfbbe)
          04092505213D

 41 40  0     0  0            999 V2000
    5.4000   -1.2841   -1.1262 C   0  0  0  0  0  0  0  0  0  0  0  0
    4.0037   -1.8362   -1.3403 C   0  0  0  0  0  0  0  0  0  0  0  0
    3.1762   -1.6201   -0.1805 O   0  0  0  0  0  0  0  0  0  0  0  0
    2.2732   -0.3278    0.0059 P   0  0  0  0  0  0  0  0  0  0  0  0
    3.1640    1.4246   -0.0506 S   0  0  0  0  0  0  0  0  0  0  0  0
    1.5248   -0.6636    1.3569 O   0  0  0  0  0  0  0  0  0  0  0  0
    1.9790   -0.1578    2.6297 C   0  0  0  0  0  0  0  0  0  0  0  0
    3.2831   -0.8054    3.0432 C   0  0  0  0  0  0  0  0  0  0  0  0
    0.7383   -0.6127   -1.4228 S   0  0  0  0  0  0  0  0  0  0  0  0
    0.0482    1.0589   -1.2971 C   0  0  0  0  0  0  0  0  0  0  0  0
   -0.9081    1.3174    0.2118 S   0  0  0  0  0  0  0  0  0  0  0  0
   -2.7953    0.5466   -0.4496 P   0  0  0  0  0  0  0  0  0  0  0  0
   -2.9660    0.4122   -2.3958 S   0  0  0  0  0  0  0  0  0  0  0  0
   -3.8752    1.5045    0.1726 O   0  0  0  0  0  0  0  0  0  0  0  0
   -4.3192    1.4976    1.5533 C   0  0  0  0  0  0  0  0  0  0  0  0
   -3.1939    1.7792    2.5249 C   0  0  0  0  0  0  0  0  0  0  0  0
   -3.0672   -0.8060    0.3465 O   0  0  0  0  0  0  0  0  0  0  0  0
   -2.4682   -2.0674   -0.0053 C   0  0  0  0  0  0  0  0  0  0  0  0
   -1.4475   -2.4749    1.0390 C   0  0  0  0  0  0  0  0  0  0  0  0
    5.8494   -1.7346   -0.2455 H   0  0  0  0  0  0  0  0  0  0  0  0
    6.0105   -1.5087   -1.9948 H   0  0  0  0  0  0  0  0  0  0  0  0
    5.3639   -0.2056   -0.9892 H   0  0  0  0  0  0  0  0  0  0  0  0
    4.0202   -2.9206   -1.4636 H   0  0  0  0  0  0  0  0  0  0  0  0
    3.5291   -1.3791   -2.2135 H   0  0  0  0  0  0  0  0  0  0  0  0
    2.0888    0.9285    2.5531 H   0  0  0  0  0  0  0  0  0  0  0  0
    1.1665   -0.4005    3.3151 H   0  0  0  0  0  0  0  0  0  0  0  0
    4.0680   -0.5268    2.3408 H   0  0  0  0  0  0  0  0  0  0  0  0
    3.5592   -0.4641    4.0358 H   0  0  0  0  0  0  0  0  0  0  0  0
    3.1815   -1.8873    3.0442 H   0  0  0  0  0  0  0  0  0  0  0  0
   -0.6004    1.1994   -2.1631 H   0  0  0  0  0  0  0  0  0  0  0  0
    0.8656    1.7808   -1.2856 H   0  0  0  0  0  0  0  0  0  0  0  0
   -5.0755    2.2837    1.5724 H   0  0  0  0  0  0  0  0  0  0  0  0
   -4.7809    0.5297    1.7565 H   0  0  0  0  0  0  0  0  0  0  0  0
   -3.5992    1.8414    3.5301 H   0  0  0  0  0  0  0  0  0  0  0  0
   -2.4564    0.9794    2.4885 H   0  0  0  0  0  0  0  0  0  0  0  0
   -2.7023    2.7167    2.2775 H   0  0  0  0  0  0  0  0  0  0  0  0
   -3.2973   -2.7771   -0.0424 H   0  0  0  0  0  0  0  0  0  0  0  0
   -2.0184   -1.9920   -1.0009 H   0  0  0  0  0  0  0  0  0  0  0  0
   -0.6226   -1.7671    1.0700 H   0  0  0  0  0  0  0  0  0  0  0  0
   -1.9143   -2.5157    2.0190 H   0  0  0  0  0  0  0  0  0  0  0  0
   -1.0555   -3.4547    0.7861 H   0  0  0  0  0  0  0  0  0  0  0  0
  1  2  1  0  0  0  0
  2  3  1  0  0  0  0
  3  4  2  0  0  0  0
  4  5  2  0  0  0  0
  4  6  2  0  0  0  0
  6  7  1  0  0  0  0
  7  8  1  0  0  0  0
  4  9  1  0  0  0  0
  9 10  1  0  0  0  0
 10 11  1  0  0  0  0
 11 12  1  0  0  0  0
 12 13  2  0  0  0  0
 12 14  2  0  0  0  0
 14 15  1  0  0  0  0
 15 16  1  0  0  0  0
 12 17  2  0  0  0  0
 17 18  1  0  0  0  0
 18 19  1  0  0  0  0
  1 20  1  0  0  0  0
  1 21  1  0  0  0  0
  1 22  1  0  0  0  0
  2 23  1  0  0  0  0
  2 24  1  0  0  0  0
  7 25  1  0  0  0  0
  7 26  1  0  0  0  0
  8 27  1  0  0  0  0
  8 28  1  0  0  0  0
  8 29  1  0  0  0  0
 10 30  1  0  0  0  0
 10 31  1  0  0  0  0
 15 32  1  0  0  0  0
 15 33  1  0  0  0  0
 16 34  1  0  0  0  0
 16 35  1  0  0  0  0
 16 36  1  0  0  0  0
 18 37  1  0  0  0  0
 18 38  1  0  0  0  0
 19 39  1  0  0  0  0
 19 40  1  0  0  0  0
 19 41  1  0  0  0  0
M  END
