 xtb: 6.7.1 (edcfbbe)
          04092507313D

 38 37  0     0  0            999 V2000
    2.7084   -1.8668    1.4422 C   0  0  0  0  0  0  0  0  0  0  0  0
    3.1212   -2.1041   -0.0020 C   0  0  0  0  0  0  0  0  0  0  0  0
    2.7402   -0.9955   -0.8423 O   0  0  0  0  0  0  0  0  0  0  0  0
    1.6086   -1.0789   -1.5210 C   0  0  0  0  0  0  0  0  0  0  0  0
    0.8633   -2.0322   -1.4947 O   0  0  0  0  0  0  0  0  0  0  0  0
    1.3461    0.1792   -2.3268 C   0  0  0  0  0  0  0  0  0  0  0  0
    0.3330    1.0584   -1.5716 C   0  0  0  0  0  0  0  0  0  0  0  0
    0.2340    2.0283   -2.0594 H   0  0  0  0  0  0  0  0  0  0  0  0
    0.8458    1.2103   -0.1582 C   0  0  0  0  0  0  0  0  0  0  0  0
    0.4879    0.4652    0.7380 O   0  0  0  0  0  0  0  0  0  0  0  0
    1.7196    2.1636   -0.0559 O   0  0  0  0  0  0  0  0  0  0  0  0
    2.4302    2.3568    1.1881 C   0  0  0  0  0  0  0  0  0  0  0  0
    3.9017    2.0521    0.9652 C   0  0  0  0  0  0  0  0  0  0  0  0
   -1.3214    0.2867   -1.5388 S   0  0  0  0  0  0  0  0  0  0  0  0
   -1.8365   -0.0799    0.5008 P   0  0  0  0  0  0  0  0  0  0  0  0
   -1.9600    1.4049    1.7830 S   0  0  0  0  0  0  0  0  0  0  0  0
   -3.3235   -0.6155    0.1661 O   0  0  0  0  0  0  0  0  0  0  0  0
   -4.3816    0.2660   -0.2105 C   0  0  0  0  0  0  0  0  0  0  0  0
   -1.2323   -1.4299    1.0679 O   0  0  0  0  0  0  0  0  0  0  0  0
   -1.4833   -2.7366    0.5150 C   0  0  0  0  0  0  0  0  0  0  0  0
    3.2425   -1.0183    1.8610 H   0  0  0  0  0  0  0  0  0  0  0  0
    1.6397   -1.6643    1.5027 H   0  0  0  0  0  0  0  0  0  0  0  0
    2.9322   -2.7518    2.0285 H   0  0  0  0  0  0  0  0  0  0  0  0
    2.6486   -3.0086   -0.3952 H   0  0  0  0  0  0  0  0  0  0  0  0
    4.2055   -2.1697   -0.1000 H   0  0  0  0  0  0  0  0  0  0  0  0
    0.9218   -0.0972   -3.2916 H   0  0  0  0  0  0  0  0  0  0  0  0
    2.2761    0.7328   -2.4519 H   0  0  0  0  0  0  0  0  0  0  0  0
    2.2742    3.4035    1.4542 H   0  0  0  0  0  0  0  0  0  0  0  0
    1.9860    1.7118    1.9506 H   0  0  0  0  0  0  0  0  0  0  0  0
    4.3113    2.7251    0.2181 H   0  0  0  0  0  0  0  0  0  0  0  0
    4.4385    2.1837    1.8987 H   0  0  0  0  0  0  0  0  0  0  0  0
    4.0251    1.0282    0.6205 H   0  0  0  0  0  0  0  0  0  0  0  0
   -4.3609    1.1623    0.4129 H   0  0  0  0  0  0  0  0  0  0  0  0
   -5.3017   -0.2890   -0.0448 H   0  0  0  0  0  0  0  0  0  0  0  0
   -4.2802    0.5398   -1.2603 H   0  0  0  0  0  0  0  0  0  0  0  0
   -2.5365   -2.8508    0.2693 H   0  0  0  0  0  0  0  0  0  0  0  0
   -1.1924   -3.4308    1.2997 H   0  0  0  0  0  0  0  0  0  0  0  0
   -0.8666   -2.8779   -0.3727 H   0  0  0  0  0  0  0  0  0  0  0  0
  1  2  1  0  0  0  0
  2  3  1  0  0  0  0
  3  4  1  0  0  0  0
  4  5  2  0  0  0  0
  4  6  1  0  0  0  0
  6  7  1  0  0  0  0
  7  8  1  0  0  0  0
  7  9  1  0  0  0  0
  9 10  2  0  0  0  0
  9 11  4  0  0  0  0
 11 12  1  0  0  0  0
 12 13  1  0  0  0  0
  7 14  1  0  0  0  0
 14 15  1  0  0  0  0
 15 16  2  0  0  0  0
 15 17  1  0  0  0  0
 17 18  1  0  0  0  0
 15 19  2  0  0  0  0
 19 20  1  0  0  0  0
  1 21  1  0  0  0  0
  1 22  1  0  0  0  0
  1 23  1  0  0  0  0
  2 24  1  0  0  0  0
  2 25  1  0  0  0  0
  6 26  1  0  0  0  0
  6 27  1  0  0  0  0
 12 28  1  0  0  0  0
 12 29  1  0  0  0  0
 13 30  1  0  0  0  0
 13 31  1  0  0  0  0
 13 32  1  0  0  0  0
 18 33  1  0  0  0  0
 18 34  1  0  0  0  0
 18 35  1  0  0  0  0
 20 36  1  0  0  0  0
 20 37  1  0  0  0  0
 20 38  1  0  0  0  0
M  END
