 xtb: 6.7.1 (edcfbbe)
          04092505203D

 41 40  0     0  0            999 V2000
    5.2929   -0.0781   -2.3825 C   0  0  0  0  0  0  0  0  0  0  0  0
    3.8435   -0.4733   -2.1826 C   0  0  0  0  0  0  0  0  0  0  0  0
    3.5712   -0.4715   -0.7670 O   0  0  0  0  0  0  0  0  0  0  0  0
    2.1084   -0.2794   -0.1813 P   0  0  0  0  0  0  0  0  0  0  0  0
    1.1033    1.1676   -1.0486 S   0  0  0  0  0  0  0  0  0  0  0  0
    2.3712   -0.1526    1.3710 O   0  0  0  0  0  0  0  0  0  0  0  0
    2.6093    1.1103    2.0247 C   0  0  0  0  0  0  0  0  0  0  0  0
    3.8742    1.7746    1.5267 C   0  0  0  0  0  0  0  0  0  0  0  0
    1.3705   -2.2533   -0.2681 S   0  0  0  0  0  0  0  0  0  0  0  0
   -0.2779   -2.0476    0.4583 C   0  0  0  0  0  0  0  0  0  0  0  0
   -1.4672   -1.2665   -0.6767 S   0  0  0  0  0  0  0  0  0  0  0  0
   -2.2131    0.2178    0.6611 P   0  0  0  0  0  0  0  0  0  0  0  0
   -0.9471    0.9354    1.9684 S   0  0  0  0  0  0  0  0  0  0  0  0
   -3.3964   -0.4911    1.4231 O   0  0  0  0  0  0  0  0  0  0  0  0
   -4.5204   -1.1235    0.7611 C   0  0  0  0  0  0  0  0  0  0  0  0
   -5.6955   -0.1729    0.6617 C   0  0  0  0  0  0  0  0  0  0  0  0
   -2.9731    1.2598   -0.2579 O   0  0  0  0  0  0  0  0  0  0  0  0
   -2.3359    2.2234   -1.1194 C   0  0  0  0  0  0  0  0  0  0  0  0
   -2.2700    1.7131   -2.5446 C   0  0  0  0  0  0  0  0  0  0  0  0
    5.9404   -0.7654   -1.8459 H   0  0  0  0  0  0  0  0  0  0  0  0
    5.5276   -0.1137   -3.4411 H   0  0  0  0  0  0  0  0  0  0  0  0
    5.4633    0.9287   -2.0115 H   0  0  0  0  0  0  0  0  0  0  0  0
    3.6483   -1.4797   -2.5616 H   0  0  0  0  0  0  0  0  0  0  0  0
    3.1635    0.2333   -2.6708 H   0  0  0  0  0  0  0  0  0  0  0  0
    1.7360    1.7515    1.8674 H   0  0  0  0  0  0  0  0  0  0  0  0
    2.6729    0.8441    3.0805 H   0  0  0  0  0  0  0  0  0  0  0  0
    4.7154    1.0919    1.6149 H   0  0  0  0  0  0  0  0  0  0  0  0
    3.7551    2.0573    0.4812 H   0  0  0  0  0  0  0  0  0  0  0  0
    4.0651    2.6673    2.1139 H   0  0  0  0  0  0  0  0  0  0  0  0
   -0.2036   -1.4347    1.3601 H   0  0  0  0  0  0  0  0  0  0  0  0
   -0.6231   -3.0528    0.6848 H   0  0  0  0  0  0  0  0  0  0  0  0
   -4.2006   -1.4667   -0.2269 H   0  0  0  0  0  0  0  0  0  0  0  0
   -4.7567   -1.9811    1.3936 H   0  0  0  0  0  0  0  0  0  0  0  0
   -5.9650    0.1897    1.6499 H   0  0  0  0  0  0  0  0  0  0  0  0
   -5.4427    0.6775    0.0346 H   0  0  0  0  0  0  0  0  0  0  0  0
   -6.5409   -0.6992    0.2296 H   0  0  0  0  0  0  0  0  0  0  0  0
   -2.9636    3.1133   -1.0441 H   0  0  0  0  0  0  0  0  0  0  0  0
   -1.3364    2.4505   -0.7376 H   0  0  0  0  0  0  0  0  0  0  0  0
   -3.2601    1.4275   -2.8880 H   0  0  0  0  0  0  0  0  0  0  0  0
   -1.8777    2.5001   -3.1801 H   0  0  0  0  0  0  0  0  0  0  0  0
   -1.6073    0.8532   -2.6096 H   0  0  0  0  0  0  0  0  0  0  0  0
  1  2  1  0  0  0  0
  2  3  1  0  0  0  0
  3  4  2  0  0  0  0
  4  5  2  0  0  0  0
  4  6  2  0  0  0  0
  6  7  1  0  0  0  0
  7  8  1  0  0  0  0
  4  9  1  0  0  0  0
  9 10  1  0  0  0  0
 10 11  1  0  0  0  0
 11 12  1  0  0  0  0
 12 13  2  0  0  0  0
 12 14  2  0  0  0  0
 14 15  1  0  0  0  0
 15 16  1  0  0  0  0
 12 17  2  0  0  0  0
 17 18  1  0  0  0  0
 18 19  1  0  0  0  0
  1 20  1  0  0  0  0
  1 21  1  0  0  0  0
  1 22  1  0  0  0  0
  2 23  1  0  0  0  0
  2 24  1  0  0  0  0
  7 25  1  0  0  0  0
  7 26  1  0  0  0  0
  8 27  1  0  0  0  0
  8 28  1  0  0  0  0
  8 29  1  0  0  0  0
 10 30  1  0  0  0  0
 10 31  1  0  0  0  0
 15 32  1  0  0  0  0
 15 33  1  0  0  0  0
 16 34  1  0  0  0  0
 16 35  1  0  0  0  0
 16 36  1  0  0  0  0
 18 37  1  0  0  0  0
 18 38  1  0  0  0  0
 19 39  1  0  0  0  0
 19 40  1  0  0  0  0
 19 41  1  0  0  0  0
M  END
