 xtb: 6.7.1 (edcfbbe)
          04092505213D

 41 40  0     0  0            999 V2000
    4.7264   -2.1639   -0.7471 C   0  0  0  0  0  0  0  0  0  0  0  0
    4.4620   -1.3700    0.5149 C   0  0  0  0  0  0  0  0  0  0  0  0
    3.8605   -0.0871    0.2568 O   0  0  0  0  0  0  0  0  0  0  0  0
    2.5322    0.1586   -0.5771 P   0  0  0  0  0  0  0  0  0  0  0  0
    2.6843    0.1063   -2.5288 S   0  0  0  0  0  0  0  0  0  0  0  0
    2.1371    1.6227   -0.1408 O   0  0  0  0  0  0  0  0  0  0  0  0
    1.5904    2.0601    1.1237 C   0  0  0  0  0  0  0  0  0  0  0  0
    2.3608    1.5620    2.3274 C   0  0  0  0  0  0  0  0  0  0  0  0
    1.1401   -1.2033    0.2848 S   0  0  0  0  0  0  0  0  0  0  0  0
   -0.0580   -1.1540   -1.0634 C   0  0  0  0  0  0  0  0  0  0  0  0
   -0.7884    0.4970   -1.3199 S   0  0  0  0  0  0  0  0  0  0  0  0
   -2.2893    0.4009    0.1727 P   0  0  0  0  0  0  0  0  0  0  0  0
   -3.3844    2.0102    0.3793 S   0  0  0  0  0  0  0  0  0  0  0  0
   -1.4220   -0.0411    1.4179 O   0  0  0  0  0  0  0  0  0  0  0  0
   -1.8941    0.1122    2.7757 C   0  0  0  0  0  0  0  0  0  0  0  0
   -3.0932   -0.7661    3.0582 C   0  0  0  0  0  0  0  0  0  0  0  0
   -3.0935   -0.9360   -0.1606 O   0  0  0  0  0  0  0  0  0  0  0  0
   -4.2117   -0.9531   -1.0670 C   0  0  0  0  0  0  0  0  0  0  0  0
   -5.1348   -2.0825   -0.6543 C   0  0  0  0  0  0  0  0  0  0  0  0
    5.2582   -3.0755   -0.4945 H   0  0  0  0  0  0  0  0  0  0  0  0
    3.7873   -2.4224   -1.2339 H   0  0  0  0  0  0  0  0  0  0  0  0
    5.3219   -1.5801   -1.4449 H   0  0  0  0  0  0  0  0  0  0  0  0
    5.3915   -1.1174    1.0281 H   0  0  0  0  0  0  0  0  0  0  0  0
    3.8032   -1.9250    1.1885 H   0  0  0  0  0  0  0  0  0  0  0  0
    1.6248    3.1483    1.0456 H   0  0  0  0  0  0  0  0  0  0  0  0
    0.5447    1.7378    1.1664 H   0  0  0  0  0  0  0  0  0  0  0  0
    2.2638    0.4823    2.4232 H   0  0  0  0  0  0  0  0  0  0  0  0
    3.4127    1.8172    2.2292 H   0  0  0  0  0  0  0  0  0  0  0  0
    1.9584    2.0338    3.2189 H   0  0  0  0  0  0  0  0  0  0  0  0
   -0.8392   -1.8709   -0.8246 H   0  0  0  0  0  0  0  0  0  0  0  0
    0.4471   -1.3960   -1.9987 H   0  0  0  0  0  0  0  0  0  0  0  0
   -1.0309   -0.1709    3.3793 H   0  0  0  0  0  0  0  0  0  0  0  0
   -2.1400    1.1662    2.9378 H   0  0  0  0  0  0  0  0  0  0  0  0
   -3.9433   -0.4293    2.4663 H   0  0  0  0  0  0  0  0  0  0  0  0
   -2.8712   -1.7993    2.8050 H   0  0  0  0  0  0  0  0  0  0  0  0
   -3.3485   -0.6975    4.1110 H   0  0  0  0  0  0  0  0  0  0  0  0
   -4.7188    0.0166   -1.0173 H   0  0  0  0  0  0  0  0  0  0  0  0
   -3.8278   -1.1011   -2.0802 H   0  0  0  0  0  0  0  0  0  0  0  0
   -5.9648   -2.1341   -1.3511 H   0  0  0  0  0  0  0  0  0  0  0  0
   -4.5974   -3.0262   -0.6651 H   0  0  0  0  0  0  0  0  0  0  0  0
   -5.5195   -1.9069    0.3463 H   0  0  0  0  0  0  0  0  0  0  0  0
  1  2  1  0  0  0  0
  2  3  1  0  0  0  0
  3  4  2  0  0  0  0
  4  5  2  0  0  0  0
  4  6  2  0  0  0  0
  6  7  1  0  0  0  0
  7  8  1  0  0  0  0
  4  9  1  0  0  0  0
  9 10  1  0  0  0  0
 10 11  1  0  0  0  0
 11 12  1  0  0  0  0
 12 13  2  0  0  0  0
 12 14  2  0  0  0  0
 14 15  1  0  0  0  0
 15 16  1  0  0  0  0
 12 17  2  0  0  0  0
 17 18  1  0  0  0  0
 18 19  1  0  0  0  0
  1 20  1  0  0  0  0
  1 21  1  0  0  0  0
  1 22  1  0  0  0  0
  2 23  1  0  0  0  0
  2 24  1  0  0  0  0
  7 25  1  0  0  0  0
  7 26  1  0  0  0  0
  8 27  1  0  0  0  0
  8 28  1  0  0  0  0
  8 29  1  0  0  0  0
 10 30  1  0  0  0  0
 10 31  1  0  0  0  0
 15 32  1  0  0  0  0
 15 33  1  0  0  0  0
 16 34  1  0  0  0  0
 16 35  1  0  0  0  0
 16 36  1  0  0  0  0
 18 37  1  0  0  0  0
 18 38  1  0  0  0  0
 19 39  1  0  0  0  0
 19 40  1  0  0  0  0
 19 41  1  0  0  0  0
M  END
