 xtb: 6.7.1 (edcfbbe)
          04092505213D

 41 40  0     0  0            999 V2000
    3.5370    0.4209   -2.7516 C   0  0  0  0  0  0  0  0  0  0  0  0
    4.2881   -0.3560   -1.6891 C   0  0  0  0  0  0  0  0  0  0  0  0
    3.8686   -0.0237   -0.3530 O   0  0  0  0  0  0  0  0  0  0  0  0
    2.3835   -0.1036    0.1766 P   0  0  0  0  0  0  0  0  0  0  0  0
    1.1968    1.4176   -0.2317 S   0  0  0  0  0  0  0  0  0  0  0  0
    2.7906   -0.2653    1.6981 O   0  0  0  0  0  0  0  0  0  0  0  0
    1.8466   -0.2273    2.7862 C   0  0  0  0  0  0  0  0  0  0  0  0
    1.7436    1.1711    3.3658 C   0  0  0  0  0  0  0  0  0  0  0  0
    1.6938   -2.0231   -0.4362 S   0  0  0  0  0  0  0  0  0  0  0  0
   -0.0119   -1.6521   -0.9078 C   0  0  0  0  0  0  0  0  0  0  0  0
   -1.0568   -1.1786    0.5059 S   0  0  0  0  0  0  0  0  0  0  0  0
   -2.1142    0.4777   -0.3376 P   0  0  0  0  0  0  0  0  0  0  0  0
   -1.7415    0.8565   -2.2225 S   0  0  0  0  0  0  0  0  0  0  0  0
   -1.8716    1.7080    0.6162 O   0  0  0  0  0  0  0  0  0  0  0  0
   -2.5492    1.9404    1.8756 C   0  0  0  0  0  0  0  0  0  0  0  0
   -2.2829    0.8475    2.8885 C   0  0  0  0  0  0  0  0  0  0  0  0
   -3.6455    0.1490   -0.0334 O   0  0  0  0  0  0  0  0  0  0  0  0
   -4.4764   -0.5986   -0.9367 C   0  0  0  0  0  0  0  0  0  0  0  0
   -4.0011   -2.0257   -1.1194 C   0  0  0  0  0  0  0  0  0  0  0  0
    3.9505    0.1921   -3.7286 H   0  0  0  0  0  0  0  0  0  0  0  0
    2.4806    0.1528   -2.7445 H   0  0  0  0  0  0  0  0  0  0  0  0
    3.6169    1.4901   -2.5680 H   0  0  0  0  0  0  0  0  0  0  0  0
    5.3506   -0.1065   -1.6928 H   0  0  0  0  0  0  0  0  0  0  0  0
    4.1601   -1.4327   -1.8321 H   0  0  0  0  0  0  0  0  0  0  0  0
    0.8715   -0.5867    2.4412 H   0  0  0  0  0  0  0  0  0  0  0  0
    2.2499   -0.9293    3.5188 H   0  0  0  0  0  0  0  0  0  0  0  0
    1.3210    1.8542    2.6313 H   0  0  0  0  0  0  0  0  0  0  0  0
    1.1091    1.1515    4.2465 H   0  0  0  0  0  0  0  0  0  0  0  0
    2.7311    1.5296    3.6425 H   0  0  0  0  0  0  0  0  0  0  0  0
   -0.3937   -2.5754   -1.3368 H   0  0  0  0  0  0  0  0  0  0  0  0
   -0.0410   -0.8354   -1.6347 H   0  0  0  0  0  0  0  0  0  0  0  0
   -2.1419    2.8995    2.1997 H   0  0  0  0  0  0  0  0  0  0  0  0
   -3.6180    2.0370    1.6746 H   0  0  0  0  0  0  0  0  0  0  0  0
   -1.2144    0.7378    3.0531 H   0  0  0  0  0  0  0  0  0  0  0  0
   -2.7649    1.1080    3.8256 H   0  0  0  0  0  0  0  0  0  0  0  0
   -2.6835   -0.1008    2.5335 H   0  0  0  0  0  0  0  0  0  0  0  0
   -5.4627   -0.5587   -0.4721 H   0  0  0  0  0  0  0  0  0  0  0  0
   -4.4949   -0.0768   -1.8985 H   0  0  0  0  0  0  0  0  0  0  0  0
   -3.8658   -2.5097   -0.1555 H   0  0  0  0  0  0  0  0  0  0  0  0
   -4.7362   -2.5744   -1.6992 H   0  0  0  0  0  0  0  0  0  0  0  0
   -3.0548   -2.0310   -1.6588 H   0  0  0  0  0  0  0  0  0  0  0  0
  1  2  1  0  0  0  0
  2  3  1  0  0  0  0
  3  4  2  0  0  0  0
  4  5  2  0  0  0  0
  4  6  2  0  0  0  0
  6  7  1  0  0  0  0
  7  8  1  0  0  0  0
  4  9  1  0  0  0  0
  9 10  1  0  0  0  0
 10 11  1  0  0  0  0
 11 12  1  0  0  0  0
 12 13  2  0  0  0  0
 12 14  2  0  0  0  0
 14 15  1  0  0  0  0
 15 16  1  0  0  0  0
 12 17  2  0  0  0  0
 17 18  1  0  0  0  0
 18 19  1  0  0  0  0
  1 20  1  0  0  0  0
  1 21  1  0  0  0  0
  1 22  1  0  0  0  0
  2 23  1  0  0  0  0
  2 24  1  0  0  0  0
  7 25  1  0  0  0  0
  7 26  1  0  0  0  0
  8 27  1  0  0  0  0
  8 28  1  0  0  0  0
  8 29  1  0  0  0  0
 10 30  1  0  0  0  0
 10 31  1  0  0  0  0
 15 32  1  0  0  0  0
 15 33  1  0  0  0  0
 16 34  1  0  0  0  0
 16 35  1  0  0  0  0
 16 36  1  0  0  0  0
 18 37  1  0  0  0  0
 18 38  1  0  0  0  0
 19 39  1  0  0  0  0
 19 40  1  0  0  0  0
 19 41  1  0  0  0  0
M  END
