 xtb: 6.7.1 (edcfbbe)
          04092505213D

 41 40  0     0  0            999 V2000
    2.3230    1.3123   -2.1987 C   0  0  0  0  0  0  0  0  0  0  0  0
    1.4940    0.0524   -2.3453 C   0  0  0  0  0  0  0  0  0  0  0  0
    0.9746   -0.4096   -1.0815 O   0  0  0  0  0  0  0  0  0  0  0  0
    1.9843   -1.0129    0.0013 P   0  0  0  0  0  0  0  0  0  0  0  0
    3.5661   -1.9177   -0.7100 S   0  0  0  0  0  0  0  0  0  0  0  0
    0.9447   -1.9583    0.7482 O   0  0  0  0  0  0  0  0  0  0  0  0
    1.4052   -3.0687    1.5438 C   0  0  0  0  0  0  0  0  0  0  0  0
    2.0196   -2.6201    2.8550 C   0  0  0  0  0  0  0  0  0  0  0  0
    2.3408    0.5777    1.3585 S   0  0  0  0  0  0  0  0  0  0  0  0
    0.6251    1.0316    1.7512 C   0  0  0  0  0  0  0  0  0  0  0  0
   -0.1578    2.0645    0.4663 S   0  0  0  0  0  0  0  0  0  0  0  0
   -1.7034    0.8350   -0.3080 P   0  0  0  0  0  0  0  0  0  0  0  0
   -1.9482    0.8395   -2.2548 S   0  0  0  0  0  0  0  0  0  0  0  0
   -2.9928    1.3703    0.4734 O   0  0  0  0  0  0  0  0  0  0  0  0
   -3.5552    2.6525    0.1504 C   0  0  0  0  0  0  0  0  0  0  0  0
   -4.7660    2.8677    1.0355 C   0  0  0  0  0  0  0  0  0  0  0  0
   -1.5041   -0.5571    0.4152 O   0  0  0  0  0  0  0  0  0  0  0  0
   -2.0373   -1.7610   -0.1711 C   0  0  0  0  0  0  0  0  0  0  0  0
   -3.5474   -1.7998   -0.0843 C   0  0  0  0  0  0  0  0  0  0  0  0
    1.7399    2.1036   -1.7326 H   0  0  0  0  0  0  0  0  0  0  0  0
    3.2034    1.1105   -1.5879 H   0  0  0  0  0  0  0  0  0  0  0  0
    2.6438    1.6398   -3.1824 H   0  0  0  0  0  0  0  0  0  0  0  0
    2.0912   -0.7523   -2.7848 H   0  0  0  0  0  0  0  0  0  0  0  0
    0.6038    0.2264   -2.9530 H   0  0  0  0  0  0  0  0  0  0  0  0
    0.5095   -3.6705    1.7054 H   0  0  0  0  0  0  0  0  0  0  0  0
    2.1307   -3.6388    0.9549 H   0  0  0  0  0  0  0  0  0  0  0  0
    2.9298   -2.0523    2.6667 H   0  0  0  0  0  0  0  0  0  0  0  0
    1.3237   -1.9983    3.4123 H   0  0  0  0  0  0  0  0  0  0  0  0
    2.2686   -3.4955    3.4466 H   0  0  0  0  0  0  0  0  0  0  0  0
    0.6861    1.6385    2.6503 H   0  0  0  0  0  0  0  0  0  0  0  0
    0.0278    0.1374    1.9007 H   0  0  0  0  0  0  0  0  0  0  0  0
   -2.7924    3.4202    0.3206 H   0  0  0  0  0  0  0  0  0  0  0  0
   -3.8233    2.6555   -0.9114 H   0  0  0  0  0  0  0  0  0  0  0  0
   -5.2024    3.8355    0.8125 H   0  0  0  0  0  0  0  0  0  0  0  0
   -5.5030    2.0909    0.8541 H   0  0  0  0  0  0  0  0  0  0  0  0
   -4.4712    2.8371    2.0803 H   0  0  0  0  0  0  0  0  0  0  0  0
   -1.7016   -1.8194   -1.2114 H   0  0  0  0  0  0  0  0  0  0  0  0
   -1.5735   -2.5613    0.4059 H   0  0  0  0  0  0  0  0  0  0  0  0
   -3.9033   -2.7588   -0.4475 H   0  0  0  0  0  0  0  0  0  0  0  0
   -3.8686   -1.6567    0.9439 H   0  0  0  0  0  0  0  0  0  0  0  0
   -3.9719   -1.0081   -0.7003 H   0  0  0  0  0  0  0  0  0  0  0  0
  1  2  1  0  0  0  0
  2  3  1  0  0  0  0
  3  4  1  0  0  0  0
  4  5  2  0  0  0  0
  4  6  2  0  0  0  0
  6  7  1  0  0  0  0
  7  8  1  0  0  0  0
  4  9  1  0  0  0  0
  9 10  1  0  0  0  0
 10 11  1  0  0  0  0
 11 12  1  0  0  0  0
 12 13  2  0  0  0  0
 12 14  1  0  0  0  0
 14 15  1  0  0  0  0
 15 16  1  0  0  0  0
 12 17  2  0  0  0  0
 17 18  1  0  0  0  0
 18 19  1  0  0  0  0
  1 20  1  0  0  0  0
  1 21  1  0  0  0  0
  1 22  1  0  0  0  0
  2 23  1  0  0  0  0
  2 24  1  0  0  0  0
  7 25  1  0  0  0  0
  7 26  1  0  0  0  0
  8 27  1  0  0  0  0
  8 28  1  0  0  0  0
  8 29  1  0  0  0  0
 10 30  1  0  0  0  0
 10 31  1  0  0  0  0
 15 32  1  0  0  0  0
 15 33  1  0  0  0  0
 16 34  1  0  0  0  0
 16 35  1  0  0  0  0
 16 36  1  0  0  0  0
 18 37  1  0  0  0  0
 18 38  1  0  0  0  0
 19 39  1  0  0  0  0
 19 40  1  0  0  0  0
 19 41  1  0  0  0  0
M  END
