 xtb: 6.7.1 (edcfbbe)
          04092507313D

 38 37  0     0  0            999 V2000
    4.8760   -3.3761   -1.1533 C   0  0  0  0  0  0  0  0  0  0  0  0
    5.0137   -2.0552   -0.4132 C   0  0  0  0  0  0  0  0  0  0  0  0
    3.8882   -1.8364    0.4607 O   0  0  0  0  0  0  0  0  0  0  0  0
    2.8195   -1.2400   -0.0220 C   0  0  0  0  0  0  0  0  0  0  0  0
    2.7075   -0.8344   -1.1610 O   0  0  0  0  0  0  0  0  0  0  0  0
    1.7400   -1.0922    1.0303 C   0  0  0  0  0  0  0  0  0  0  0  0
    0.4748   -0.5916    0.3609 C   0  0  0  0  0  0  0  0  0  0  0  0
    0.0376   -1.3387   -0.3088 H   0  0  0  0  0  0  0  0  0  0  0  0
    0.6707    0.6910   -0.4191 C   0  0  0  0  0  0  0  0  0  0  0  0
   -0.0213    0.9717   -1.3767 O   0  0  0  0  0  0  0  0  0  0  0  0
    1.5713    1.4783    0.1185 O   0  0  0  0  0  0  0  0  0  0  0  0
    1.7264    2.8054   -0.4225 C   0  0  0  0  0  0  0  0  0  0  0  0
    0.8246    3.7785    0.3205 C   0  0  0  0  0  0  0  0  0  0  0  0
   -0.8028   -0.1387    1.5948 S   0  0  0  0  0  0  0  0  0  0  0  0
   -2.3737    0.1824    0.2370 P   0  0  0  0  0  0  0  0  0  0  0  0
   -2.5549   -1.0617   -1.2714 S   0  0  0  0  0  0  0  0  0  0  0  0
   -3.6543    0.1866    1.1946 O   0  0  0  0  0  0  0  0  0  0  0  0
   -4.2211   -1.0326    1.6902 C   0  0  0  0  0  0  0  0  0  0  0  0
   -2.2886    1.7430   -0.0590 O   0  0  0  0  0  0  0  0  0  0  0  0
   -2.8766    2.3073   -1.2426 C   0  0  0  0  0  0  0  0  0  0  0  0
    4.0102   -3.3477   -1.8115 H   0  0  0  0  0  0  0  0  0  0  0  0
    5.7654   -3.5474   -1.7505 H   0  0  0  0  0  0  0  0  0  0  0  0
    4.7564   -4.1913   -0.4453 H   0  0  0  0  0  0  0  0  0  0  0  0
    5.0765   -1.2211   -1.1177 H   0  0  0  0  0  0  0  0  0  0  0  0
    5.8770   -2.0604    0.2521 H   0  0  0  0  0  0  0  0  0  0  0  0
    2.0854   -0.3754    1.7775 H   0  0  0  0  0  0  0  0  0  0  0  0
    1.5714   -2.0477    1.5254 H   0  0  0  0  0  0  0  0  0  0  0  0
    2.7803    3.0424   -0.2764 H   0  0  0  0  0  0  0  0  0  0  0  0
    1.4874    2.7761   -1.4891 H   0  0  0  0  0  0  0  0  0  0  0  0
    1.0766    3.7897    1.3772 H   0  0  0  0  0  0  0  0  0  0  0  0
    0.9511    4.7738   -0.0920 H   0  0  0  0  0  0  0  0  0  0  0  0
   -0.2156    3.4771    0.2126 H   0  0  0  0  0  0  0  0  0  0  0  0
   -5.2201   -0.7746    2.0319 H   0  0  0  0  0  0  0  0  0  0  0  0
   -3.6177   -1.4110    2.5143 H   0  0  0  0  0  0  0  0  0  0  0  0
   -4.2693   -1.7735    0.8900 H   0  0  0  0  0  0  0  0  0  0  0  0
   -3.9424    2.0868   -1.2784 H   0  0  0  0  0  0  0  0  0  0  0  0
   -2.3784    1.9015   -2.1241 H   0  0  0  0  0  0  0  0  0  0  0  0
   -2.7068    3.3782   -1.1669 H   0  0  0  0  0  0  0  0  0  0  0  0
  1  2  1  0  0  0  0
  2  3  1  0  0  0  0
  3  4  1  0  0  0  0
  4  5  2  0  0  0  0
  4  6  1  0  0  0  0
  6  7  1  0  0  0  0
  7  8  1  0  0  0  0
  7  9  1  0  0  0  0
  9 10  2  0  0  0  0
  9 11  4  0  0  0  0
 11 12  1  0  0  0  0
 12 13  1  0  0  0  0
  7 14  1  0  0  0  0
 14 15  1  0  0  0  0
 15 16  2  0  0  0  0
 15 17  1  0  0  0  0
 17 18  1  0  0  0  0
 15 19  1  0  0  0  0
 19 20  1  0  0  0  0
  1 21  1  0  0  0  0
  1 22  1  0  0  0  0
  1 23  1  0  0  0  0
  2 24  1  0  0  0  0
  2 25  1  0  0  0  0
  6 26  1  0  0  0  0
  6 27  1  0  0  0  0
 12 28  1  0  0  0  0
 12 29  1  0  0  0  0
 13 30  1  0  0  0  0
 13 31  1  0  0  0  0
 13 32  1  0  0  0  0
 18 33  1  0  0  0  0
 18 34  1  0  0  0  0
 18 35  1  0  0  0  0
 20 36  1  0  0  0  0
 20 37  1  0  0  0  0
 20 38  1  0  0  0  0
M  END
