 xtb: 6.7.1 (edcfbbe)
          04092505203D

 41 40  0     0  0            999 V2000
    4.1163    2.6419    0.5099 C   0  0  0  0  0  0  0  0  0  0  0  0
    4.6350    1.4348   -0.2440 C   0  0  0  0  0  0  0  0  0  0  0  0
    3.5700    0.7038   -0.8801 O   0  0  0  0  0  0  0  0  0  0  0  0
    2.5021   -0.1323   -0.0504 P   0  0  0  0  0  0  0  0  0  0  0  0
    3.2431   -1.0743    1.5054 S   0  0  0  0  0  0  0  0  0  0  0  0
    1.8436   -1.0204   -1.1825 O   0  0  0  0  0  0  0  0  0  0  0  0
    2.4251   -2.2676   -1.6265 C   0  0  0  0  0  0  0  0  0  0  0  0
    1.7940   -3.4400   -0.9026 C   0  0  0  0  0  0  0  0  0  0  0  0
    0.9074    1.1775    0.3070 S   0  0  0  0  0  0  0  0  0  0  0  0
    0.0043    0.0388    1.4285 C   0  0  0  0  0  0  0  0  0  0  0  0
   -1.7028    0.5568    1.6175 S   0  0  0  0  0  0  0  0  0  0  0  0
   -2.3331    0.0174   -0.3525 P   0  0  0  0  0  0  0  0  0  0  0  0
   -1.5506   -1.6225   -1.0775 S   0  0  0  0  0  0  0  0  0  0  0  0
   -2.0264    1.2547   -1.2781 O   0  0  0  0  0  0  0  0  0  0  0  0
   -2.1214    2.6555   -0.9209 C   0  0  0  0  0  0  0  0  0  0  0  0
   -3.4783    3.0311   -0.3674 C   0  0  0  0  0  0  0  0  0  0  0  0
   -3.9194    0.0164   -0.2762 O   0  0  0  0  0  0  0  0  0  0  0  0
   -4.6797   -1.1456    0.0974 C   0  0  0  0  0  0  0  0  0  0  0  0
   -4.4472   -1.5489    1.5391 C   0  0  0  0  0  0  0  0  0  0  0  0
    3.5059    3.2609   -0.1429 H   0  0  0  0  0  0  0  0  0  0  0  0
    3.5094    2.3194    1.3552 H   0  0  0  0  0  0  0  0  0  0  0  0
    4.9551    3.2229    0.8794 H   0  0  0  0  0  0  0  0  0  0  0  0
    5.1642    0.7553    0.4318 H   0  0  0  0  0  0  0  0  0  0  0  0
    5.2861    1.7210   -1.0708 H   0  0  0  0  0  0  0  0  0  0  0  0
    2.2105   -2.3001   -2.6957 H   0  0  0  0  0  0  0  0  0  0  0  0
    3.5063   -2.2373   -1.4654 H   0  0  0  0  0  0  0  0  0  0  0  0
    2.1680   -4.3664   -1.3260 H   0  0  0  0  0  0  0  0  0  0  0  0
    2.0398   -3.4083    0.1569 H   0  0  0  0  0  0  0  0  0  0  0  0
    0.7124   -3.4030   -1.0151 H   0  0  0  0  0  0  0  0  0  0  0  0
    0.4682    0.0574    2.4122 H   0  0  0  0  0  0  0  0  0  0  0  0
    0.0293   -0.9630    0.9931 H   0  0  0  0  0  0  0  0  0  0  0  0
   -1.3254    2.8747   -0.2027 H   0  0  0  0  0  0  0  0  0  0  0  0
   -1.9128    3.1639   -1.8633 H   0  0  0  0  0  0  0  0  0  0  0  0
   -3.6495    2.5316    0.5841 H   0  0  0  0  0  0  0  0  0  0  0  0
   -3.5106    4.1053   -0.2136 H   0  0  0  0  0  0  0  0  0  0  0  0
   -4.2619    2.7425   -1.0630 H   0  0  0  0  0  0  0  0  0  0  0  0
   -5.7137   -0.8440   -0.0749 H   0  0  0  0  0  0  0  0  0  0  0  0
   -4.4138   -1.9649   -0.5782 H   0  0  0  0  0  0  0  0  0  0  0  0
   -4.6002   -0.7002    2.2005 H   0  0  0  0  0  0  0  0  0  0  0  0
   -5.1383   -2.3427    1.8039 H   0  0  0  0  0  0  0  0  0  0  0  0
   -3.4290   -1.9137    1.6648 H   0  0  0  0  0  0  0  0  0  0  0  0
  1  2  1  0  0  0  0
  2  3  1  0  0  0  0
  3  4  2  0  0  0  0
  4  5  2  0  0  0  0
  4  6  2  0  0  0  0
  6  7  1  0  0  0  0
  7  8  1  0  0  0  0
  4  9  1  0  0  0  0
  9 10  1  0  0  0  0
 10 11  1  0  0  0  0
 11 12  1  0  0  0  0
 12 13  2  0  0  0  0
 12 14  2  0  0  0  0
 14 15  1  0  0  0  0
 15 16  1  0  0  0  0
 12 17  2  0  0  0  0
 17 18  1  0  0  0  0
 18 19  1  0  0  0  0
  1 20  1  0  0  0  0
  1 21  1  0  0  0  0
  1 22  1  0  0  0  0
  2 23  1  0  0  0  0
  2 24  1  0  0  0  0
  7 25  1  0  0  0  0
  7 26  1  0  0  0  0
  8 27  1  0  0  0  0
  8 28  1  0  0  0  0
  8 29  1  0  0  0  0
 10 30  1  0  0  0  0
 10 31  1  0  0  0  0
 15 32  1  0  0  0  0
 15 33  1  0  0  0  0
 16 34  1  0  0  0  0
 16 35  1  0  0  0  0
 16 36  1  0  0  0  0
 18 37  1  0  0  0  0
 18 38  1  0  0  0  0
 19 39  1  0  0  0  0
 19 40  1  0  0  0  0
 19 41  1  0  0  0  0
M  END
