41
 xtb: 6.7.1 (edcfbbe)
C            5.01843060167654       -1.12411121640464       -2.36338109433299
C            3.92060686160187       -1.97425577232814       -1.77570086564901
O            3.49111985641697       -1.52423483020512       -0.44138033134569
P            2.73236539192203       -0.14756557819051       -0.11132987545683
S            3.70938000756611        1.53491197497344       -0.14039494153593
O            2.20831938230287       -0.44054773495176        1.37579542096160
C            1.47276169205903       -1.67126392241999        1.71258587858704
C            0.78463113333253       -1.43073644326447        3.03080172319604
S            1.07837843758420       -0.26286236322989       -1.44909397825407
C            0.36600212460259        1.41227532403964       -1.22906030296084
S           -0.54204256461841        1.70665473292032        0.33820087664270
P           -2.28386678244023        0.54779216337335        0.02167780415960
S           -2.95339811477912        0.50635304698404       -1.80839342913401
O           -3.26592376287304        1.13877922009903        1.15094088937495
C           -4.02477733096216        2.38154808650218        0.92971840846201
C           -5.49403769510054        2.08095676041076        1.07370900501187
O           -1.88388595740041       -0.86040305699016        0.67888722584439
C           -2.81466732175678       -2.00280932916072        0.61279903874404
C           -2.00896257022805       -3.25385998725782        0.84359844072317
H            5.36459874893743       -1.60848405806641       -3.28237810853557
H            4.66630384594383       -0.12111781175510       -2.61577142588064
H            5.86477899459501       -1.04379179998954       -1.67529575707844
H            4.26133584202100       -2.99477451853694       -1.59065295322429
H            3.04262419083626       -2.01421503447859       -2.42771143744401
H            0.75574880425245       -1.88368638236049        0.91300618610222
H            2.19965875353428       -2.48594456706466        1.77292347637794
H            0.04580577222485       -0.62836072855939        2.95010381946426
H            0.27037121238540       -2.34691092244107        3.33631481667417
H            1.51110153119189       -1.17129030102069        3.80629315417824
H           -0.31301751362468        1.56448560729066       -2.07311696729207
H            1.16617847263221        2.15840083864992       -1.26092398192525
H           -3.67052905206637        3.08349817518794        1.68887185181827
H           -3.79052524715821        2.78025502672113       -0.06197458766499
H           -6.06090674259693        3.01074003746506        0.96226818344935
H           -5.82502505494490        1.37791576691592        0.30388203343515
H           -5.71225211727964        1.66048975213566        2.05956836530301
H           -3.57533808360869       -1.85100825837923        1.38474239595772
H           -3.29151760928540       -2.00728044571203       -0.37220292381287
H           -1.25685605622706       -3.38385149479444        0.05989171664349
H           -1.51322575945373       -3.23176261103497        1.81815771175854
H           -2.68412379855112       -4.11504409914295        0.82008289541270
