 xtb: 6.7.1 (edcfbbe)
          04092513593D

 41 40  0     0  0            999 V2000
    5.3041   -2.5377   -1.3732 C   0  0  0  0  0  0  0  0  0  0  0  0
    4.2882   -1.4321   -1.5800 C   0  0  0  0  0  0  0  0  0  0  0  0
    3.3249   -1.5092   -0.5098 O   0  0  0  0  0  0  0  0  0  0  0  0
    2.3444   -0.3077   -0.1605 P   0  0  0  0  0  0  0  0  0  0  0  0
    3.2242    1.4441   -0.0279 S   0  0  0  0  0  0  0  0  0  0  0  0
    1.6452   -0.8602    1.1452 O   0  0  0  0  0  0  0  0  0  0  0  0
    2.1637   -0.6167    2.4762 C   0  0  0  0  0  0  0  0  0  0  0  0
    1.2648    0.3589    3.2089 C   0  0  0  0  0  0  0  0  0  0  0  0
    0.7923   -0.5004   -1.5768 S   0  0  0  0  0  0  0  0  0  0  0  0
    0.1102    1.1730   -1.3915 C   0  0  0  0  0  0  0  0  0  0  0  0
   -0.6858    1.4459    0.2055 S   0  0  0  0  0  0  0  0  0  0  0  0
   -2.5964    0.5579   -0.2138 P   0  0  0  0  0  0  0  0  0  0  0  0
   -3.0051    0.2650   -2.1025 S   0  0  0  0  0  0  0  0  0  0  0  0
   -3.6435    1.5374    0.4309 O   0  0  0  0  0  0  0  0  0  0  0  0
   -3.6054    1.9458    1.8231 C   0  0  0  0  0  0  0  0  0  0  0  0
   -4.5880    1.1381    2.6465 C   0  0  0  0  0  0  0  0  0  0  0  0
   -2.6715   -0.6847    0.7822 O   0  0  0  0  0  0  0  0  0  0  0  0
   -1.7409   -1.7781    0.8166 C   0  0  0  0  0  0  0  0  0  0  0  0
   -1.9496   -2.7509   -0.3262 C   0  0  0  0  0  0  0  0  0  0  0  0
    6.0247   -2.5146   -2.1842 H   0  0  0  0  0  0  0  0  0  0  0  0
    5.8228   -2.3997   -0.4288 H   0  0  0  0  0  0  0  0  0  0  0  0
    4.8044   -3.5020   -1.3632 H   0  0  0  0  0  0  0  0  0  0  0  0
    3.7567   -1.5523   -2.5277 H   0  0  0  0  0  0  0  0  0  0  0  0
    4.7586   -0.4433   -1.5556 H   0  0  0  0  0  0  0  0  0  0  0  0
    2.1774   -1.5946    2.9598 H   0  0  0  0  0  0  0  0  0  0  0  0
    3.1830   -0.2282    2.4015 H   0  0  0  0  0  0  0  0  0  0  0  0
    0.2447   -0.0141    3.2294 H   0  0  0  0  0  0  0  0  0  0  0  0
    1.6240    0.4813    4.2256 H   0  0  0  0  0  0  0  0  0  0  0  0
    1.2730    1.3245    2.7075 H   0  0  0  0  0  0  0  0  0  0  0  0
   -0.6216    1.2954   -2.1911 H   0  0  0  0  0  0  0  0  0  0  0  0
    0.9180    1.9002   -1.4664 H   0  0  0  0  0  0  0  0  0  0  0  0
   -2.5840    1.8361    2.1969 H   0  0  0  0  0  0  0  0  0  0  0  0
   -3.8766    3.0028    1.8061 H   0  0  0  0  0  0  0  0  0  0  0  0
   -5.5901    1.2464    2.2407 H   0  0  0  0  0  0  0  0  0  0  0  0
   -4.3188    0.0855    2.6333 H   0  0  0  0  0  0  0  0  0  0  0  0
   -4.5748    1.5007    3.6697 H   0  0  0  0  0  0  0  0  0  0  0  0
   -0.7211   -1.3815    0.8071 H   0  0  0  0  0  0  0  0  0  0  0  0
   -1.9342   -2.2546    1.7797 H   0  0  0  0  0  0  0  0  0  0  0  0
   -1.7415   -2.2704   -1.2805 H   0  0  0  0  0  0  0  0  0  0  0  0
   -1.2748   -3.5921   -0.2037 H   0  0  0  0  0  0  0  0  0  0  0  0
   -2.9761   -3.1079   -0.3334 H   0  0  0  0  0  0  0  0  0  0  0  0
  1  2  1  0  0  0  0
  2  3  1  0  0  0  0
  3  4  2  0  0  0  0
  4  5  2  0  0  0  0
  4  6  2  0  0  0  0
  6  7  1  0  0  0  0
  7  8  1  0  0  0  0
  4  9  1  0  0  0  0
  9 10  1  0  0  0  0
 10 11  1  0  0  0  0
 11 12  1  0  0  0  0
 12 13  2  0  0  0  0
 12 14  2  0  0  0  0
 14 15  1  0  0  0  0
 15 16  1  0  0  0  0
 12 17  2  0  0  0  0
 17 18  1  0  0  0  0
 18 19  1  0  0  0  0
  1 20  1  0  0  0  0
  1 21  1  0  0  0  0
  1 22  1  0  0  0  0
  2 23  1  0  0  0  0
  2 24  1  0  0  0  0
  7 25  1  0  0  0  0
  7 26  1  0  0  0  0
  8 27  1  0  0  0  0
  8 28  1  0  0  0  0
  8 29  1  0  0  0  0
 10 30  1  0  0  0  0
 10 31  1  0  0  0  0
 15 32  1  0  0  0  0
 15 33  1  0  0  0  0
 16 34  1  0  0  0  0
 16 35  1  0  0  0  0
 16 36  1  0  0  0  0
 18 37  1  0  0  0  0
 18 38  1  0  0  0  0
 19 39  1  0  0  0  0
 19 40  1  0  0  0  0
 19 41  1  0  0  0  0
M  END
