 xtb: 6.7.1 (edcfbbe)
          04032519443D

 12 11  0     0  0            999 V2000
   -1.7581    0.6889   -0.0002 C   0  0  0  0  0  0  0  0  0  0  0  0
   -0.4725   -0.1057   -0.0000 C   0  0  0  0  0  0  0  0  0  0  0  0
   -0.4470   -1.3349    0.0001 O   0  0  0  0  0  0  0  0  0  0  0  0
    0.6384    0.6445    0.0006 N   0  0  0  0  0  0  0  0  0  0  0  0
    1.9754    0.0967   -0.0003 C   0  0  0  0  0  0  0  0  0  0  0  0
   -1.8070    1.3170    0.8849 H   0  0  0  0  0  0  0  0  0  0  0  0
   -1.8060    1.3181   -0.8848 H   0  0  0  0  0  0  0  0  0  0  0  0
   -2.6002    0.0035   -0.0011 H   0  0  0  0  0  0  0  0  0  0  0  0
    0.5518    1.6490   -0.0001 H   0  0  0  0  0  0  0  0  0  0  0  0
    2.5148    0.4111   -0.8937 H   0  0  0  0  0  0  0  0  0  0  0  0
    1.8898   -0.9886    0.0061 H   0  0  0  0  0  0  0  0  0  0  0  0
    2.5205    0.4219    0.8857 H   0  0  0  0  0  0  0  0  0  0  0  0
  1  2  1  0  0  0  0
  2  3  2  0  0  0  0
  2  4  4  0  0  0  0
  4  5  1  0  0  0  0
  1  6  1  0  0  0  0
  1  7  1  0  0  0  0
  1  8  1  0  0  0  0
  4  9  1  0  0  0  0
  5 10  1  0  0  0  0
  5 11  1  0  0  0  0
  5 12  1  0  0  0  0
M  END
