  28
 
 C         -3.9825467893       -0.6949637044        0.0008438073
 C         -3.9825542262        0.6950640719        0.0007116948
 C         -2.7867160199        1.3826158591        0.0015511188
 C         -1.5703506416        0.6986537637        0.0027397902
 C         -1.5703450523       -0.6985396311        0.0028449611
 C         -2.7867039640       -1.3825097452        0.0017929523
 C         -0.3157989367       -1.4613513723        0.0033366990
 O         -0.3673506352       -2.7101480917        0.0038821623
 C          0.9209056167       -0.7158568338        0.0036495151
 C          2.1515834081       -1.4160995655        0.0071767926
 C          3.3659449867       -0.6767799306        0.0115930288
 C          3.3659403610        0.6769432103        0.0115535690
 C          2.1515695184        1.4162500895        0.0070898166
 C          0.9208988617        0.7159956095        0.0035982900
 C         -0.3158128589        1.4614797135        0.0032057209
 O         -0.3673773102        2.7102757880        0.0036393362
 N          2.2252245604        2.7527560354        0.0040669434
 N          2.2252515166       -2.7526031185        0.0042117461
 H         -4.9161408499       -1.2360372881        0.0000594813
 H         -4.9161518086        1.2361303288       -0.0001615559
 H         -2.7601874693        2.4626242837        0.0013913914
 H         -2.7601733316       -2.4625165907        0.0017933732
 H          4.2953864653       -1.2254614617        0.0145426171
 H          4.2953759488        1.2256358822        0.0144779666
 H          3.1216193318        3.2063742322        0.0176876243
 H          1.3575335876        3.2762998475        0.0072148813
 H          1.3575696783       -3.2761570335        0.0074219060
 H          3.1216500998       -3.2062112707        0.0179139832
          28
        -49.07695712
 C         -3.9806516888       -0.6950169398        0.0064746913
 C         -3.9806514516        0.6950156228        0.0063657268
 C         -2.7849245774        1.3825996755        0.0021599115
 C         -1.5684975929        0.6986066799       -0.0012841921
 C         -1.5684939321       -0.6986096285       -0.0012384188
 C         -2.7849181280       -1.3825976108        0.0023848655
 C         -0.3138895043       -1.4613349024       -0.0048493771
 O         -0.3655608100       -2.7101505521       -0.0081258842
 C          0.9229692018       -0.7159232333       -0.0020522769
 C          2.1536844516       -1.4160116350        0.0014860683
 C          3.3681404053       -0.6768414120        0.0073851918
 C          3.3681429665        0.6768507107        0.0072895660
 C          2.1536714962        1.4160197222        0.0013043250
 C          0.9229663845        0.7159196719       -0.0020380671
 C         -0.3138995772        1.4613199238       -0.0044560964
 O         -0.3655604945        2.7101487490       -0.0079248841
 N          2.2271399142        2.7523960853       -0.0007916778
 N          2.2271497516       -2.7523959880       -0.0006547441
 H         -4.9142485216       -1.2360579395        0.0096594482
 H         -4.9142578424        1.2360448348        0.0096357795
 H         -2.7582461439        2.4625642772        0.0020762795
 H         -2.7582748816       -2.4625643557        0.0021333663
 H          4.2973993620       -1.2257287357        0.0117406946
 H          4.2973806165        1.2257651903        0.0116738430
 H          3.1234496871        3.2061586741        0.0045275594
 H          1.3590485614        3.2751799375       -0.0035487641
 H          1.3590587753       -3.2751723886       -0.0034798681
 H          3.1234850720       -3.2061222406        0.0048633333
