 xtb: 6.7.1 (edcfbbe)
          04092507313D

 38 37  0     0  0            999 V2000
    2.4860   -3.1553   -2.6769 C   0  0  0  0  0  0  0  0  0  0  0  0
    3.3134   -3.0318   -1.4072 C   0  0  0  0  0  0  0  0  0  0  0  0
    3.0466   -1.7741   -0.7574 O   0  0  0  0  0  0  0  0  0  0  0  0
    2.0845   -1.7200    0.1384 C   0  0  0  0  0  0  0  0  0  0  0  0
    1.4433   -2.6706    0.5284 O   0  0  0  0  0  0  0  0  0  0  0  0
    1.8466   -0.2947    0.6037 C   0  0  0  0  0  0  0  0  0  0  0  0
    1.1206    0.4597   -0.5163 C   0  0  0  0  0  0  0  0  0  0  0  0
    1.7991    0.6204   -1.3574 H   0  0  0  0  0  0  0  0  0  0  0  0
    0.5840    1.7918   -0.0271 C   0  0  0  0  0  0  0  0  0  0  0  0
   -0.6026    2.0569   -0.0371 O   0  0  0  0  0  0  0  0  0  0  0  0
    1.5303    2.5696    0.4097 O   0  0  0  0  0  0  0  0  0  0  0  0
    1.1692    3.8645    0.9422 C   0  0  0  0  0  0  0  0  0  0  0  0
    1.0338    4.8898   -0.1709 C   0  0  0  0  0  0  0  0  0  0  0  0
   -0.2802   -0.4861   -1.2122 S   0  0  0  0  0  0  0  0  0  0  0  0
   -1.7795   -0.1893    0.2597 P   0  0  0  0  0  0  0  0  0  0  0  0
   -1.3591    0.1907    2.1466 S   0  0  0  0  0  0  0  0  0  0  0  0
   -2.9602    0.6242   -0.4157 O   0  0  0  0  0  0  0  0  0  0  0  0
   -3.4068    1.9226   -0.0186 C   0  0  0  0  0  0  0  0  0  0  0  0
   -2.5214   -1.6046    0.1095 O   0  0  0  0  0  0  0  0  0  0  0  0
   -1.9609   -2.7904    0.6775 C   0  0  0  0  0  0  0  0  0  0  0  0
    1.4253   -3.1156   -2.4377 H   0  0  0  0  0  0  0  0  0  0  0  0
    2.7185   -2.3419   -3.3580 H   0  0  0  0  0  0  0  0  0  0  0  0
    2.7059   -4.1017   -3.1594 H   0  0  0  0  0  0  0  0  0  0  0  0
    4.3809   -3.0112   -1.6267 H   0  0  0  0  0  0  0  0  0  0  0  0
    3.0819   -3.8417   -0.7099 H   0  0  0  0  0  0  0  0  0  0  0  0
    2.7962    0.1995    0.8050 H   0  0  0  0  0  0  0  0  0  0  0  0
    1.2363   -0.3217    1.5084 H   0  0  0  0  0  0  0  0  0  0  0  0
    0.2349    3.7616    1.5005 H   0  0  0  0  0  0  0  0  0  0  0  0
    1.9894    4.1113    1.6157 H   0  0  0  0  0  0  0  0  0  0  0  0
    0.2182    4.6186   -0.8371 H   0  0  0  0  0  0  0  0  0  0  0  0
    0.8229    5.8611    0.2640 H   0  0  0  0  0  0  0  0  0  0  0  0
    1.9558    4.9461   -0.7427 H   0  0  0  0  0  0  0  0  0  0  0  0
   -3.1122    2.1280    1.0118 H   0  0  0  0  0  0  0  0  0  0  0  0
   -4.4908    1.9076   -0.1082 H   0  0  0  0  0  0  0  0  0  0  0  0
   -2.9709    2.6683   -0.6805 H   0  0  0  0  0  0  0  0  0  0  0  0
   -1.9681   -2.7176    1.7662 H   0  0  0  0  0  0  0  0  0  0  0  0
   -0.9343   -2.9456    0.3395 H   0  0  0  0  0  0  0  0  0  0  0  0
   -2.5984   -3.6046    0.3443 H   0  0  0  0  0  0  0  0  0  0  0  0
  1  2  1  0  0  0  0
  2  3  1  0  0  0  0
  3  4  1  0  0  0  0
  4  5  2  0  0  0  0
  4  6  1  0  0  0  0
  6  7  1  0  0  0  0
  7  8  1  0  0  0  0
  7  9  1  0  0  0  0
  9 10  2  0  0  0  0
  9 11  4  0  0  0  0
 11 12  1  0  0  0  0
 12 13  1  0  0  0  0
  7 14  1  0  0  0  0
 14 15  1  0  0  0  0
 15 16  2  0  0  0  0
 15 17  2  0  0  0  0
 17 18  1  0  0  0  0
 15 19  1  0  0  0  0
 19 20  1  0  0  0  0
  1 21  1  0  0  0  0
  1 22  1  0  0  0  0
  1 23  1  0  0  0  0
  2 24  1  0  0  0  0
  2 25  1  0  0  0  0
  6 26  1  0  0  0  0
  6 27  1  0  0  0  0
 12 28  1  0  0  0  0
 12 29  1  0  0  0  0
 13 30  1  0  0  0  0
 13 31  1  0  0  0  0
 13 32  1  0  0  0  0
 18 33  1  0  0  0  0
 18 34  1  0  0  0  0
 18 35  1  0  0  0  0
 20 36  1  0  0  0  0
 20 37  1  0  0  0  0
 20 38  1  0  0  0  0
M  END
