 xtb: 6.7.1 (edcfbbe)
          04092505213D

 41 40  0     0  0            999 V2000
    3.4064    2.1200   -0.9823 C   0  0  0  0  0  0  0  0  0  0  0  0
    3.5381    1.1778    0.1972 C   0  0  0  0  0  0  0  0  0  0  0  0
    3.0012   -0.1194   -0.1353 O   0  0  0  0  0  0  0  0  0  0  0  0
    1.8365   -0.8711    0.6468 P   0  0  0  0  0  0  0  0  0  0  0  0
    1.1411    0.0946    2.2077 S   0  0  0  0  0  0  0  0  0  0  0  0
    2.4061   -2.3159    0.9923 O   0  0  0  0  0  0  0  0  0  0  0  0
    3.0181   -2.6186    2.2595 C   0  0  0  0  0  0  0  0  0  0  0  0
    4.3559   -1.9240    2.4163 C   0  0  0  0  0  0  0  0  0  0  0  0
    0.6253   -1.5832   -0.9267 S   0  0  0  0  0  0  0  0  0  0  0  0
    0.5268   -0.0741   -1.9381 C   0  0  0  0  0  0  0  0  0  0  0  0
   -0.1050    1.3541   -1.0202 S   0  0  0  0  0  0  0  0  0  0  0  0
   -2.0144    0.5581   -0.5979 P   0  0  0  0  0  0  0  0  0  0  0  0
   -2.8175   -0.4938   -2.0503 S   0  0  0  0  0  0  0  0  0  0  0  0
   -2.8891    1.7882   -0.1065 O   0  0  0  0  0  0  0  0  0  0  0  0
   -3.6669    2.5845   -1.0199 C   0  0  0  0  0  0  0  0  0  0  0  0
   -2.7908    3.4360   -1.9151 C   0  0  0  0  0  0  0  0  0  0  0  0
   -1.6910   -0.1790    0.7668 O   0  0  0  0  0  0  0  0  0  0  0  0
   -2.6489   -0.4557    1.8083 C   0  0  0  0  0  0  0  0  0  0  0  0
   -3.7301   -1.4113    1.3496 C   0  0  0  0  0  0  0  0  0  0  0  0
    3.9066    3.0522   -0.7411 H   0  0  0  0  0  0  0  0  0  0  0  0
    3.8710    1.6842   -1.8625 H   0  0  0  0  0  0  0  0  0  0  0  0
    2.3585    2.3266   -1.1920 H   0  0  0  0  0  0  0  0  0  0  0  0
    3.0093    1.5642    1.0754 H   0  0  0  0  0  0  0  0  0  0  0  0
    4.5877    1.0090    0.4479 H   0  0  0  0  0  0  0  0  0  0  0  0
    2.3325   -2.3179    3.0588 H   0  0  0  0  0  0  0  0  0  0  0  0
    3.1227   -3.7043    2.2484 H   0  0  0  0  0  0  0  0  0  0  0  0
    4.9939   -2.1441    1.5642 H   0  0  0  0  0  0  0  0  0  0  0  0
    4.2054   -0.8468    2.4818 H   0  0  0  0  0  0  0  0  0  0  0  0
    4.8365   -2.2683    3.3266 H   0  0  0  0  0  0  0  0  0  0  0  0
   -0.1542   -0.3110   -2.7561 H   0  0  0  0  0  0  0  0  0  0  0  0
    1.5146    0.1908   -2.3068 H   0  0  0  0  0  0  0  0  0  0  0  0
   -4.2907    1.9123   -1.6178 H   0  0  0  0  0  0  0  0  0  0  0  0
   -4.2929    3.1939   -0.3669 H   0  0  0  0  0  0  0  0  0  0  0  0
   -3.4160    4.1076   -2.4945 H   0  0  0  0  0  0  0  0  0  0  0  0
   -2.0914    4.0158   -1.3181 H   0  0  0  0  0  0  0  0  0  0  0  0
   -2.2276    2.8004   -2.5969 H   0  0  0  0  0  0  0  0  0  0  0  0
   -2.0367   -0.8850    2.6044 H   0  0  0  0  0  0  0  0  0  0  0  0
   -3.0736    0.4929    2.1442 H   0  0  0  0  0  0  0  0  0  0  0  0
   -4.3777   -1.6513    2.1869 H   0  0  0  0  0  0  0  0  0  0  0  0
   -4.3234   -0.9543    0.5583 H   0  0  0  0  0  0  0  0  0  0  0  0
   -3.2858   -2.3258    0.9625 H   0  0  0  0  0  0  0  0  0  0  0  0
  1  2  1  0  0  0  0
  2  3  1  0  0  0  0
  3  4  2  0  0  0  0
  4  5  2  0  0  0  0
  4  6  2  0  0  0  0
  6  7  1  0  0  0  0
  7  8  1  0  0  0  0
  4  9  1  0  0  0  0
  9 10  1  0  0  0  0
 10 11  1  0  0  0  0
 11 12  1  0  0  0  0
 12 13  2  0  0  0  0
 12 14  2  0  0  0  0
 14 15  1  0  0  0  0
 15 16  1  0  0  0  0
 12 17  2  0  0  0  0
 17 18  1  0  0  0  0
 18 19  1  0  0  0  0
  1 20  1  0  0  0  0
  1 21  1  0  0  0  0
  1 22  1  0  0  0  0
  2 23  1  0  0  0  0
  2 24  1  0  0  0  0
  7 25  1  0  0  0  0
  7 26  1  0  0  0  0
  8 27  1  0  0  0  0
  8 28  1  0  0  0  0
  8 29  1  0  0  0  0
 10 30  1  0  0  0  0
 10 31  1  0  0  0  0
 15 32  1  0  0  0  0
 15 33  1  0  0  0  0
 16 34  1  0  0  0  0
 16 35  1  0  0  0  0
 16 36  1  0  0  0  0
 18 37  1  0  0  0  0
 18 38  1  0  0  0  0
 19 39  1  0  0  0  0
 19 40  1  0  0  0  0
 19 41  1  0  0  0  0
M  END
