 xtb: 6.7.1 (edcfbbe)
          04092513593D

 41 40  0     0  0            999 V2000
    2.3959   -2.3067    2.4670 C   0  0  0  0  0  0  0  0  0  0  0  0
    1.4951   -1.7948    1.3601 C   0  0  0  0  0  0  0  0  0  0  0  0
    1.8598   -0.4377    1.0583 O   0  0  0  0  0  0  0  0  0  0  0  0
    2.3514    0.0854   -0.3630 P   0  0  0  0  0  0  0  0  0  0  0  0
    2.9800   -1.2826   -1.6090 S   0  0  0  0  0  0  0  0  0  0  0  0
    3.4806    1.1208    0.0143 O   0  0  0  0  0  0  0  0  0  0  0  0
    3.5160    1.9377    1.2107 C   0  0  0  0  0  0  0  0  0  0  0  0
    2.6285    3.1586    1.0887 C   0  0  0  0  0  0  0  0  0  0  0  0
    0.7625    1.3100   -1.0988 S   0  0  0  0  0  0  0  0  0  0  0  0
   -0.0524    0.0847   -2.1463 C   0  0  0  0  0  0  0  0  0  0  0  0
   -0.8249   -1.2729   -1.2165 S   0  0  0  0  0  0  0  0  0  0  0  0
   -2.1608   -0.0909   -0.0910 P   0  0  0  0  0  0  0  0  0  0  0  0
   -2.9694    1.4777   -0.9529 S   0  0  0  0  0  0  0  0  0  0  0  0
   -1.2467    0.1911    1.1723 O   0  0  0  0  0  0  0  0  0  0  0  0
   -1.6072    1.1831    2.1629 C   0  0  0  0  0  0  0  0  0  0  0  0
   -0.4860    1.2405    3.1791 C   0  0  0  0  0  0  0  0  0  0  0  0
   -3.2095   -1.1203    0.5200 O   0  0  0  0  0  0  0  0  0  0  0  0
   -4.4791   -1.4086   -0.0915 C   0  0  0  0  0  0  0  0  0  0  0  0
   -4.3323   -2.2314   -1.3552 C   0  0  0  0  0  0  0  0  0  0  0  0
    2.3236   -1.6627    3.3391 H   0  0  0  0  0  0  0  0  0  0  0  0
    2.0920   -3.3127    2.7370 H   0  0  0  0  0  0  0  0  0  0  0  0
    3.4284   -2.3264    2.1256 H   0  0  0  0  0  0  0  0  0  0  0  0
    0.4467   -1.7740    1.6665 H   0  0  0  0  0  0  0  0  0  0  0  0
    1.5970   -2.4053    0.4567 H   0  0  0  0  0  0  0  0  0  0  0  0
    3.2271    1.3198    2.0631 H   0  0  0  0  0  0  0  0  0  0  0  0
    4.5674    2.2170    1.2948 H   0  0  0  0  0  0  0  0  0  0  0  0
    2.7446    3.7722    1.9769 H   0  0  0  0  0  0  0  0  0  0  0  0
    2.9040    3.7392    0.2125 H   0  0  0  0  0  0  0  0  0  0  0  0
    1.5844    2.8664    0.9905 H   0  0  0  0  0  0  0  0  0  0  0  0
    0.6788   -0.3807   -2.8072 H   0  0  0  0  0  0  0  0  0  0  0  0
   -0.8140    0.6234   -2.7085 H   0  0  0  0  0  0  0  0  0  0  0  0
   -1.7444    2.1419    1.6524 H   0  0  0  0  0  0  0  0  0  0  0  0
   -2.5534    0.8867    2.6233 H   0  0  0  0  0  0  0  0  0  0  0  0
    0.4517    1.4749    2.6828 H   0  0  0  0  0  0  0  0  0  0  0  0
   -0.7072    2.0092    3.9123 H   0  0  0  0  0  0  0  0  0  0  0  0
   -0.3871    0.2815    3.6794 H   0  0  0  0  0  0  0  0  0  0  0  0
   -5.0235   -1.9536    0.6811 H   0  0  0  0  0  0  0  0  0  0  0  0
   -4.9829   -0.4606   -0.3057 H   0  0  0  0  0  0  0  0  0  0  0  0
   -3.7501   -3.1282   -1.1594 H   0  0  0  0  0  0  0  0  0  0  0  0
   -5.3175   -2.5126   -1.7141 H   0  0  0  0  0  0  0  0  0  0  0  0
   -3.8294   -1.6479   -2.1251 H   0  0  0  0  0  0  0  0  0  0  0  0
  1  2  1  0  0  0  0
  2  3  1  0  0  0  0
  3  4  2  0  0  0  0
  4  5  2  0  0  0  0
  4  6  2  0  0  0  0
  6  7  1  0  0  0  0
  7  8  1  0  0  0  0
  4  9  1  0  0  0  0
  9 10  1  0  0  0  0
 10 11  1  0  0  0  0
 11 12  1  0  0  0  0
 12 13  2  0  0  0  0
 12 14  2  0  0  0  0
 14 15  1  0  0  0  0
 15 16  1  0  0  0  0
 12 17  2  0  0  0  0
 17 18  1  0  0  0  0
 18 19  1  0  0  0  0
  1 20  1  0  0  0  0
  1 21  1  0  0  0  0
  1 22  1  0  0  0  0
  2 23  1  0  0  0  0
  2 24  1  0  0  0  0
  7 25  1  0  0  0  0
  7 26  1  0  0  0  0
  8 27  1  0  0  0  0
  8 28  1  0  0  0  0
  8 29  1  0  0  0  0
 10 30  1  0  0  0  0
 10 31  1  0  0  0  0
 15 32  1  0  0  0  0
 15 33  1  0  0  0  0
 16 34  1  0  0  0  0
 16 35  1  0  0  0  0
 16 36  1  0  0  0  0
 18 37  1  0  0  0  0
 18 38  1  0  0  0  0
 19 39  1  0  0  0  0
 19 40  1  0  0  0  0
 19 41  1  0  0  0  0
M  END
