 xtb: 6.7.1 (edcfbbe)
          04092505213D

 41 40  0     0  0            999 V2000
    2.9971   -1.8048   -2.6975 C   0  0  0  0  0  0  0  0  0  0  0  0
    3.7398   -0.8576   -1.7758 C   0  0  0  0  0  0  0  0  0  0  0  0
    3.1991   -0.9186   -0.4383 O   0  0  0  0  0  0  0  0  0  0  0  0
    2.1003    0.0747    0.1127 P   0  0  0  0  0  0  0  0  0  0  0  0
    1.3810    1.3254   -1.2192 S   0  0  0  0  0  0  0  0  0  0  0  0
    2.8899    0.7572    1.3080 O   0  0  0  0  0  0  0  0  0  0  0  0
    2.4020    1.9102    2.0262 C   0  0  0  0  0  0  0  0  0  0  0  0
    3.0944    3.1655    1.5328 C   0  0  0  0  0  0  0  0  0  0  0  0
    0.8946   -1.2933    1.2040 S   0  0  0  0  0  0  0  0  0  0  0  0
    0.1827   -2.2560   -0.1584 C   0  0  0  0  0  0  0  0  0  0  0  0
   -0.8394   -1.2827   -1.3097 S   0  0  0  0  0  0  0  0  0  0  0  0
   -1.9976   -0.1730    0.0660 P   0  0  0  0  0  0  0  0  0  0  0  0
   -1.3028    1.3477    1.1077 S   0  0  0  0  0  0  0  0  0  0  0  0
   -2.5272   -1.3893    0.9276 O   0  0  0  0  0  0  0  0  0  0  0  0
   -3.0837   -1.2195    2.2473 C   0  0  0  0  0  0  0  0  0  0  0  0
   -4.4395   -0.5475    2.1985 C   0  0  0  0  0  0  0  0  0  0  0  0
   -3.2627    0.2218   -0.8118 O   0  0  0  0  0  0  0  0  0  0  0  0
   -3.3370    1.4490   -1.5547 C   0  0  0  0  0  0  0  0  0  0  0  0
   -2.3645    1.4638   -2.7164 C   0  0  0  0  0  0  0  0  0  0  0  0
    3.4603   -1.7809   -3.6786 H   0  0  0  0  0  0  0  0  0  0  0  0
    3.0376   -2.8193   -2.3096 H   0  0  0  0  0  0  0  0  0  0  0  0
    1.9571   -1.4944   -2.7931 H   0  0  0  0  0  0  0  0  0  0  0  0
    3.6716    0.1701   -2.1437 H   0  0  0  0  0  0  0  0  0  0  0  0
    4.7860   -1.1430   -1.6605 H   0  0  0  0  0  0  0  0  0  0  0  0
    1.3173    1.9908    1.9068 H   0  0  0  0  0  0  0  0  0  0  0  0
    2.6353    1.7088    3.0733 H   0  0  0  0  0  0  0  0  0  0  0  0
    2.8359    3.3495    0.4921 H   0  0  0  0  0  0  0  0  0  0  0  0
    2.7694    4.0099    2.1319 H   0  0  0  0  0  0  0  0  0  0  0  0
    4.1718    3.0531    1.6153 H   0  0  0  0  0  0  0  0  0  0  0  0
   -0.4321   -3.0223    0.3083 H   0  0  0  0  0  0  0  0  0  0  0  0
    0.9779   -2.6987   -0.7548 H   0  0  0  0  0  0  0  0  0  0  0  0
   -3.1474   -2.2361    2.6371 H   0  0  0  0  0  0  0  0  0  0  0  0
   -2.3801   -0.6333    2.8474 H   0  0  0  0  0  0  0  0  0  0  0  0
   -4.3315    0.4757    1.8406 H   0  0  0  0  0  0  0  0  0  0  0  0
   -5.1014   -1.0863    1.5258 H   0  0  0  0  0  0  0  0  0  0  0  0
   -4.8691   -0.5294    3.1951 H   0  0  0  0  0  0  0  0  0  0  0  0
   -4.3731    1.4889   -1.8935 H   0  0  0  0  0  0  0  0  0  0  0  0
   -3.1338    2.2820   -0.8730 H   0  0  0  0  0  0  0  0  0  0  0  0
   -2.5040    0.5827   -3.3380 H   0  0  0  0  0  0  0  0  0  0  0  0
   -2.5241    2.3568   -3.3120 H   0  0  0  0  0  0  0  0  0  0  0  0
   -1.3377    1.4718   -2.3474 H   0  0  0  0  0  0  0  0  0  0  0  0
  1  2  1  0  0  0  0
  2  3  1  0  0  0  0
  3  4  2  0  0  0  0
  4  5  2  0  0  0  0
  4  6  2  0  0  0  0
  6  7  1  0  0  0  0
  7  8  1  0  0  0  0
  4  9  1  0  0  0  0
  9 10  1  0  0  0  0
 10 11  1  0  0  0  0
 11 12  1  0  0  0  0
 12 13  2  0  0  0  0
 12 14  2  0  0  0  0
 14 15  1  0  0  0  0
 15 16  1  0  0  0  0
 12 17  2  0  0  0  0
 17 18  1  0  0  0  0
 18 19  1  0  0  0  0
  1 20  1  0  0  0  0
  1 21  1  0  0  0  0
  1 22  1  0  0  0  0
  2 23  1  0  0  0  0
  2 24  1  0  0  0  0
  7 25  1  0  0  0  0
  7 26  1  0  0  0  0
  8 27  1  0  0  0  0
  8 28  1  0  0  0  0
  8 29  1  0  0  0  0
 10 30  1  0  0  0  0
 10 31  1  0  0  0  0
 15 32  1  0  0  0  0
 15 33  1  0  0  0  0
 16 34  1  0  0  0  0
 16 35  1  0  0  0  0
 16 36  1  0  0  0  0
 18 37  1  0  0  0  0
 18 38  1  0  0  0  0
 19 39  1  0  0  0  0
 19 40  1  0  0  0  0
 19 41  1  0  0  0  0
M  END
