 xtb: 6.7.1 (edcfbbe)
          04092507313D

 38 37  0     0  0            999 V2000
    5.2689    0.0591   -0.7755 C   0  0  0  0  0  0  0  0  0  0  0  0
    4.8368   -1.2962   -1.3114 C   0  0  0  0  0  0  0  0  0  0  0  0
    3.5748   -1.7015   -0.7457 O   0  0  0  0  0  0  0  0  0  0  0  0
    2.4672   -1.2571   -1.3033 C   0  0  0  0  0  0  0  0  0  0  0  0
    2.4227   -0.5324   -2.2721 O   0  0  0  0  0  0  0  0  0  0  0  0
    1.2381   -1.8033   -0.5978 C   0  0  0  0  0  0  0  0  0  0  0  0
    0.2123   -0.6902   -0.4316 C   0  0  0  0  0  0  0  0  0  0  0  0
    0.0702   -0.1732   -1.3901 H   0  0  0  0  0  0  0  0  0  0  0  0
    0.6302    0.3555    0.5833 C   0  0  0  0  0  0  0  0  0  0  0  0
   -0.1654    0.8755    1.3398 O   0  0  0  0  0  0  0  0  0  0  0  0
    1.9054    0.6292    0.5254 O   0  0  0  0  0  0  0  0  0  0  0  0
    2.4359    1.6139    1.4415 C   0  0  0  0  0  0  0  0  0  0  0  0
    2.8229    0.9624    2.7584 C   0  0  0  0  0  0  0  0  0  0  0  0
   -1.4020   -1.3522    0.0940 S   0  0  0  0  0  0  0  0  0  0  0  0
   -2.4975    0.4698    0.1396 P   0  0  0  0  0  0  0  0  0  0  0  0
   -1.8693    1.9256   -1.0107 S   0  0  0  0  0  0  0  0  0  0  0  0
   -3.9483   -0.0695   -0.3019 O   0  0  0  0  0  0  0  0  0  0  0  0
   -4.2074   -0.5114   -1.6363 C   0  0  0  0  0  0  0  0  0  0  0  0
   -2.8408    0.8857    1.6226 O   0  0  0  0  0  0  0  0  0  0  0  0
   -3.3978   -0.0432    2.5737 C   0  0  0  0  0  0  0  0  0  0  0  0
    6.2409    0.3136   -1.1849 H   0  0  0  0  0  0  0  0  0  0  0  0
    4.5497    0.8188   -1.0734 H   0  0  0  0  0  0  0  0  0  0  0  0
    5.3320    0.0319    0.3086 H   0  0  0  0  0  0  0  0  0  0  0  0
    5.5312   -2.0828   -1.0164 H   0  0  0  0  0  0  0  0  0  0  0  0
    4.7352   -1.2635   -2.3999 H   0  0  0  0  0  0  0  0  0  0  0  0
    1.5250   -2.2318    0.3610 H   0  0  0  0  0  0  0  0  0  0  0  0
    0.8071   -2.5872   -1.2237 H   0  0  0  0  0  0  0  0  0  0  0  0
    3.3037    2.0240    0.9251 H   0  0  0  0  0  0  0  0  0  0  0  0
    1.6811    2.3907    1.5912 H   0  0  0  0  0  0  0  0  0  0  0  0
    3.2977    1.7017    3.3948 H   0  0  0  0  0  0  0  0  0  0  0  0
    1.9382    0.5797    3.2620 H   0  0  0  0  0  0  0  0  0  0  0  0
    3.5140    0.1426    2.5817 H   0  0  0  0  0  0  0  0  0  0  0  0
   -3.7345   -1.4789   -1.8049 H   0  0  0  0  0  0  0  0  0  0  0  0
   -3.8287    0.2194   -2.3532 H   0  0  0  0  0  0  0  0  0  0  0  0
   -5.2884   -0.5934   -1.7139 H   0  0  0  0  0  0  0  0  0  0  0  0
   -3.4287    0.5024    3.5132 H   0  0  0  0  0  0  0  0  0  0  0  0
   -2.7552   -0.9198    2.6583 H   0  0  0  0  0  0  0  0  0  0  0  0
   -4.3972   -0.3390    2.2597 H   0  0  0  0  0  0  0  0  0  0  0  0
  1  2  1  0  0  0  0
  2  3  1  0  0  0  0
  3  4  1  0  0  0  0
  4  5  2  0  0  0  0
  4  6  1  0  0  0  0
  6  7  1  0  0  0  0
  7  8  1  0  0  0  0
  7  9  1  0  0  0  0
  9 10  2  0  0  0  0
  9 11  4  0  0  0  0
 11 12  1  0  0  0  0
 12 13  1  0  0  0  0
  7 14  1  0  0  0  0
 14 15  1  0  0  0  0
 15 16  2  0  0  0  0
 15 17  1  0  0  0  0
 17 18  1  0  0  0  0
 15 19  2  0  0  0  0
 19 20  1  0  0  0  0
  1 21  1  0  0  0  0
  1 22  1  0  0  0  0
  1 23  1  0  0  0  0
  2 24  1  0  0  0  0
  2 25  1  0  0  0  0
  6 26  1  0  0  0  0
  6 27  1  0  0  0  0
 12 28  1  0  0  0  0
 12 29  1  0  0  0  0
 13 30  1  0  0  0  0
 13 31  1  0  0  0  0
 13 32  1  0  0  0  0
 18 33  1  0  0  0  0
 18 34  1  0  0  0  0
 18 35  1  0  0  0  0
 20 36  1  0  0  0  0
 20 37  1  0  0  0  0
 20 38  1  0  0  0  0
M  END
