 xtb: 6.7.1 (edcfbbe)
          04092505213D

 41 40  0     0  0            999 V2000
    2.5097   -3.1598   -0.4321 C   0  0  0  0  0  0  0  0  0  0  0  0
    3.3667   -2.2071   -1.2363 C   0  0  0  0  0  0  0  0  0  0  0  0
    3.5442   -0.9320   -0.5743 O   0  0  0  0  0  0  0  0  0  0  0  0
    2.4138    0.0783   -0.1522 P   0  0  0  0  0  0  0  0  0  0  0  0
    3.1070    1.8854    0.1185 S   0  0  0  0  0  0  0  0  0  0  0  0
    1.7807   -0.5939    1.1458 O   0  0  0  0  0  0  0  0  0  0  0  0
    1.2685    0.1248    2.2792 C   0  0  0  0  0  0  0  0  0  0  0  0
    2.0202   -0.3101    3.5218 C   0  0  0  0  0  0  0  0  0  0  0  0
    0.9550   -0.1441   -1.7036 S   0  0  0  0  0  0  0  0  0  0  0  0
    0.2518    1.5138   -1.5960 C   0  0  0  0  0  0  0  0  0  0  0  0
   -0.6457    1.8108   -0.0501 S   0  0  0  0  0  0  0  0  0  0  0  0
   -2.1082    0.3000   -0.3414 P   0  0  0  0  0  0  0  0  0  0  0  0
   -2.7161   -0.0374   -2.1641 S   0  0  0  0  0  0  0  0  0  0  0  0
   -3.2979    0.7572    0.5971 O   0  0  0  0  0  0  0  0  0  0  0  0
   -3.1133    1.0602    2.0031 C   0  0  0  0  0  0  0  0  0  0  0  0
   -4.4651    1.4420    2.5683 C   0  0  0  0  0  0  0  0  0  0  0  0
   -1.3881   -0.9207    0.4074 O   0  0  0  0  0  0  0  0  0  0  0  0
   -1.6113   -2.2891    0.0175 C   0  0  0  0  0  0  0  0  0  0  0  0
   -2.9995   -2.7539    0.4074 C   0  0  0  0  0  0  0  0  0  0  0  0
    2.9300   -3.2984    0.5603 H   0  0  0  0  0  0  0  0  0  0  0  0
    1.5028   -2.7585   -0.3384 H   0  0  0  0  0  0  0  0  0  0  0  0
    2.4640   -4.1164   -0.9431 H   0  0  0  0  0  0  0  0  0  0  0  0
    2.9281   -2.0237   -2.2209 H   0  0  0  0  0  0  0  0  0  0  0  0
    4.3882   -2.5737   -1.3478 H   0  0  0  0  0  0  0  0  0  0  0  0
    1.3854    1.2004    2.1093 H   0  0  0  0  0  0  0  0  0  0  0  0
    0.2052   -0.1177    2.3458 H   0  0  0  0  0  0  0  0  0  0  0  0
    1.9300   -1.3836    3.6599 H   0  0  0  0  0  0  0  0  0  0  0  0
    3.0724   -0.0530    3.4255 H   0  0  0  0  0  0  0  0  0  0  0  0
    1.6066    0.2016    4.3847 H   0  0  0  0  0  0  0  0  0  0  0  0
   -0.4306    1.6149   -2.4392 H   0  0  0  0  0  0  0  0  0  0  0  0
    1.0501    2.2553   -1.6319 H   0  0  0  0  0  0  0  0  0  0  0  0
   -2.7055    0.1750    2.4973 H   0  0  0  0  0  0  0  0  0  0  0  0
   -2.3964    1.8821    2.0851 H   0  0  0  0  0  0  0  0  0  0  0  0
   -5.1649    0.6192    2.4544 H   0  0  0  0  0  0  0  0  0  0  0  0
   -4.3562    1.6806    3.6213 H   0  0  0  0  0  0  0  0  0  0  0  0
   -4.8565    2.3076    2.0418 H   0  0  0  0  0  0  0  0  0  0  0  0
   -1.4635   -2.3718   -1.0638 H   0  0  0  0  0  0  0  0  0  0  0  0
   -0.8345   -2.8464    0.5438 H   0  0  0  0  0  0  0  0  0  0  0  0
   -3.7454   -2.1475   -0.1066 H   0  0  0  0  0  0  0  0  0  0  0  0
   -3.1273   -3.7914    0.1156 H   0  0  0  0  0  0  0  0  0  0  0  0
   -3.1464   -2.6611    1.4803 H   0  0  0  0  0  0  0  0  0  0  0  0
  1  2  1  0  0  0  0
  2  3  1  0  0  0  0
  3  4  2  0  0  0  0
  4  5  2  0  0  0  0
  4  6  2  0  0  0  0
  6  7  1  0  0  0  0
  7  8  1  0  0  0  0
  4  9  1  0  0  0  0
  9 10  1  0  0  0  0
 10 11  1  0  0  0  0
 11 12  1  0  0  0  0
 12 13  2  0  0  0  0
 12 14  2  0  0  0  0
 14 15  1  0  0  0  0
 15 16  1  0  0  0  0
 12 17  1  0  0  0  0
 17 18  1  0  0  0  0
 18 19  1  0  0  0  0
  1 20  1  0  0  0  0
  1 21  1  0  0  0  0
  1 22  1  0  0  0  0
  2 23  1  0  0  0  0
  2 24  1  0  0  0  0
  7 25  1  0  0  0  0
  7 26  1  0  0  0  0
  8 27  1  0  0  0  0
  8 28  1  0  0  0  0
  8 29  1  0  0  0  0
 10 30  1  0  0  0  0
 10 31  1  0  0  0  0
 15 32  1  0  0  0  0
 15 33  1  0  0  0  0
 16 34  1  0  0  0  0
 16 35  1  0  0  0  0
 16 36  1  0  0  0  0
 18 37  1  0  0  0  0
 18 38  1  0  0  0  0
 19 39  1  0  0  0  0
 19 40  1  0  0  0  0
 19 41  1  0  0  0  0
M  END
