 xtb: 6.7.1 (edcfbbe)
          04092507313D

 38 37  0     0  0            999 V2000
    5.4416   -1.6233   -0.5535 C   0  0  0  0  0  0  0  0  0  0  0  0
    4.3560   -2.0581    0.4181 C   0  0  0  0  0  0  0  0  0  0  0  0
    3.0669   -2.0836   -0.2284 O   0  0  0  0  0  0  0  0  0  0  0  0
    2.3637   -0.9750   -0.2752 C   0  0  0  0  0  0  0  0  0  0  0  0
    2.7157    0.0895    0.1936 O   0  0  0  0  0  0  0  0  0  0  0  0
    1.0310   -1.1830   -0.9546 C   0  0  0  0  0  0  0  0  0  0  0  0
    0.4085    0.1618   -1.3060 C   0  0  0  0  0  0  0  0  0  0  0  0
    0.8282    0.5841   -2.2202 H   0  0  0  0  0  0  0  0  0  0  0  0
    0.5449    1.1699   -0.1805 C   0  0  0  0  0  0  0  0  0  0  0  0
    0.0649    0.9740    0.9209 O   0  0  0  0  0  0  0  0  0  0  0  0
    1.0766    2.2911   -0.5912 O   0  0  0  0  0  0  0  0  0  0  0  0
    1.2770    3.3623    0.3551 C   0  0  0  0  0  0  0  0  0  0  0  0
    2.7499    3.4617    0.7134 C   0  0  0  0  0  0  0  0  0  0  0  0
   -1.3834    0.0262   -1.5990 S   0  0  0  0  0  0  0  0  0  0  0  0
   -2.1942   -0.2977    0.3538 P   0  0  0  0  0  0  0  0  0  0  0  0
   -1.4327   -1.6471    1.5549 S   0  0  0  0  0  0  0  0  0  0  0  0
   -2.5380    1.1031    1.0085 O   0  0  0  0  0  0  0  0  0  0  0  0
   -3.3811    2.0692    0.3504 C   0  0  0  0  0  0  0  0  0  0  0  0
   -3.6720   -0.7146   -0.1188 O   0  0  0  0  0  0  0  0  0  0  0  0
   -3.9444   -1.9979   -0.6894 C   0  0  0  0  0  0  0  0  0  0  0  0
    5.4439   -2.2720   -1.4249 H   0  0  0  0  0  0  0  0  0  0  0  0
    5.2696   -0.5980   -0.8729 H   0  0  0  0  0  0  0  0  0  0  0  0
    6.4062   -1.6817   -0.0604 H   0  0  0  0  0  0  0  0  0  0  0  0
    4.3036   -1.3800    1.2746 H   0  0  0  0  0  0  0  0  0  0  0  0
    4.5085   -3.0832    0.7553 H   0  0  0  0  0  0  0  0  0  0  0  0
    0.4038   -1.7168   -0.2298 H   0  0  0  0  0  0  0  0  0  0  0  0
    1.1424   -1.8148   -1.8343 H   0  0  0  0  0  0  0  0  0  0  0  0
    0.9278    4.2612   -0.1557 H   0  0  0  0  0  0  0  0  0  0  0  0
    0.6657    3.1619    1.2396 H   0  0  0  0  0  0  0  0  0  0  0  0
    2.8909    4.2509    1.4443 H   0  0  0  0  0  0  0  0  0  0  0  0
    3.0887    2.5167    1.1316 H   0  0  0  0  0  0  0  0  0  0  0  0
    3.3359    3.6790   -0.1745 H   0  0  0  0  0  0  0  0  0  0  0  0
   -3.2958    2.9726    0.9490 H   0  0  0  0  0  0  0  0  0  0  0  0
   -4.4078    1.7085    0.3336 H   0  0  0  0  0  0  0  0  0  0  0  0
   -3.0320    2.2441   -0.6680 H   0  0  0  0  0  0  0  0  0  0  0  0
   -3.6017   -2.0218   -1.7232 H   0  0  0  0  0  0  0  0  0  0  0  0
   -5.0234   -2.1185   -0.6388 H   0  0  0  0  0  0  0  0  0  0  0  0
   -3.4459   -2.7773   -0.1105 H   0  0  0  0  0  0  0  0  0  0  0  0
  1  2  1  0  0  0  0
  2  3  1  0  0  0  0
  3  4  4  0  0  0  0
  4  5  2  0  0  0  0
  4  6  1  0  0  0  0
  6  7  1  0  0  0  0
  7  8  1  0  0  0  0
  7  9  1  0  0  0  0
  9 10  2  0  0  0  0
  9 11  4  0  0  0  0
 11 12  1  0  0  0  0
 12 13  1  0  0  0  0
  7 14  1  0  0  0  0
 14 15  1  0  0  0  0
 15 16  2  0  0  0  0
 15 17  2  0  0  0  0
 17 18  1  0  0  0  0
 15 19  1  0  0  0  0
 19 20  1  0  0  0  0
  1 21  1  0  0  0  0
  1 22  1  0  0  0  0
  1 23  1  0  0  0  0
  2 24  1  0  0  0  0
  2 25  1  0  0  0  0
  6 26  1  0  0  0  0
  6 27  1  0  0  0  0
 12 28  1  0  0  0  0
 12 29  1  0  0  0  0
 13 30  1  0  0  0  0
 13 31  1  0  0  0  0
 13 32  1  0  0  0  0
 18 33  1  0  0  0  0
 18 34  1  0  0  0  0
 18 35  1  0  0  0  0
 20 36  1  0  0  0  0
 20 37  1  0  0  0  0
 20 38  1  0  0  0  0
M  END
