 xtb: 6.7.1 (edcfbbe)
          04092505213D

 41 40  0     0  0            999 V2000
    1.0857    0.2447    3.1618 C   0  0  0  0  0  0  0  0  0  0  0  0
    2.2720    0.6108    2.2931 C   0  0  0  0  0  0  0  0  0  0  0  0
    2.7938   -0.5320    1.5919 O   0  0  0  0  0  0  0  0  0  0  0  0
    2.2020   -1.1407    0.2466 P   0  0  0  0  0  0  0  0  0  0  0  0
    0.4624   -2.0421    0.3216 S   0  0  0  0  0  0  0  0  0  0  0  0
    3.3124   -2.1880   -0.1307 O   0  0  0  0  0  0  0  0  0  0  0  0
    4.7388   -2.0191    0.0653 C   0  0  0  0  0  0  0  0  0  0  0  0
    5.3080   -0.8832   -0.7574 C   0  0  0  0  0  0  0  0  0  0  0  0
    2.3341    0.4593   -1.1704 S   0  0  0  0  0  0  0  0  0  0  0  0
    0.5908    0.6918   -1.5416 C   0  0  0  0  0  0  0  0  0  0  0  0
   -0.3102    1.3795   -0.1129 S   0  0  0  0  0  0  0  0  0  0  0  0
   -2.2720    0.7318   -0.6446 P   0  0  0  0  0  0  0  0  0  0  0  0
   -2.3804   -0.7300   -1.9383 S   0  0  0  0  0  0  0  0  0  0  0  0
   -2.9794    2.0224   -1.2053 O   0  0  0  0  0  0  0  0  0  0  0  0
   -3.0523    3.2824   -0.4912 C   0  0  0  0  0  0  0  0  0  0  0  0
   -4.3437    3.3899    0.2930 C   0  0  0  0  0  0  0  0  0  0  0  0
   -2.9768    0.5351    0.7656 O   0  0  0  0  0  0  0  0  0  0  0  0
   -2.7916   -0.6384    1.5819 C   0  0  0  0  0  0  0  0  0  0  0  0
   -3.9540   -1.5935    1.3977 C   0  0  0  0  0  0  0  0  0  0  0  0
    0.2582   -0.0951    2.5432 H   0  0  0  0  0  0  0  0  0  0  0  0
    1.3538   -0.5524    3.8498 H   0  0  0  0  0  0  0  0  0  0  0  0
    0.7714    1.1186    3.7226 H   0  0  0  0  0  0  0  0  0  0  0  0
    3.1143    0.9539    2.8968 H   0  0  0  0  0  0  0  0  0  0  0  0
    1.9977    1.3835    1.5676 H   0  0  0  0  0  0  0  0  0  0  0  0
    4.9191   -1.8636    1.1302 H   0  0  0  0  0  0  0  0  0  0  0  0
    5.1453   -2.9830   -0.2445 H   0  0  0  0  0  0  0  0  0  0  0  0
    6.3871   -0.8675   -0.6392 H   0  0  0  0  0  0  0  0  0  0  0  0
    5.0650   -1.0163   -1.8084 H   0  0  0  0  0  0  0  0  0  0  0  0
    4.9014    0.0704   -0.4247 H   0  0  0  0  0  0  0  0  0  0  0  0
    0.1289   -0.2632   -1.8059 H   0  0  0  0  0  0  0  0  0  0  0  0
    0.5465    1.3941   -2.3708 H   0  0  0  0  0  0  0  0  0  0  0  0
   -2.1803    3.3674    0.1639 H   0  0  0  0  0  0  0  0  0  0  0  0
   -3.0007    4.0379   -1.2771 H   0  0  0  0  0  0  0  0  0  0  0  0
   -4.3772    2.6341    1.0726 H   0  0  0  0  0  0  0  0  0  0  0  0
   -4.4020    4.3752    0.7449 H   0  0  0  0  0  0  0  0  0  0  0  0
   -5.1932    3.2479   -0.3694 H   0  0  0  0  0  0  0  0  0  0  0  0
   -1.8501   -1.1290    1.3197 H   0  0  0  0  0  0  0  0  0  0  0  0
   -2.7394   -0.2640    2.6060 H   0  0  0  0  0  0  0  0  0  0  0  0
   -4.8917   -1.0954    1.6272 H   0  0  0  0  0  0  0  0  0  0  0  0
   -3.9841   -1.9468    0.3688 H   0  0  0  0  0  0  0  0  0  0  0  0
   -3.8233   -2.4452    2.0572 H   0  0  0  0  0  0  0  0  0  0  0  0
  1  2  1  0  0  0  0
  2  3  1  0  0  0  0
  3  4  2  0  0  0  0
  4  5  2  0  0  0  0
  4  6  2  0  0  0  0
  6  7  1  0  0  0  0
  7  8  1  0  0  0  0
  4  9  1  0  0  0  0
  9 10  1  0  0  0  0
 10 11  1  0  0  0  0
 11 12  1  0  0  0  0
 12 13  2  0  0  0  0
 12 14  2  0  0  0  0
 14 15  1  0  0  0  0
 15 16  1  0  0  0  0
 12 17  2  0  0  0  0
 17 18  1  0  0  0  0
 18 19  1  0  0  0  0
  1 20  1  0  0  0  0
  1 21  1  0  0  0  0
  1 22  1  0  0  0  0
  2 23  1  0  0  0  0
  2 24  1  0  0  0  0
  7 25  1  0  0  0  0
  7 26  1  0  0  0  0
  8 27  1  0  0  0  0
  8 28  1  0  0  0  0
  8 29  1  0  0  0  0
 10 30  1  0  0  0  0
 10 31  1  0  0  0  0
 15 32  1  0  0  0  0
 15 33  1  0  0  0  0
 16 34  1  0  0  0  0
 16 35  1  0  0  0  0
 16 36  1  0  0  0  0
 18 37  1  0  0  0  0
 18 38  1  0  0  0  0
 19 39  1  0  0  0  0
 19 40  1  0  0  0  0
 19 41  1  0  0  0  0
M  END
