 xtb: 6.7.1 (edcfbbe)
          04092505213D

 41 40  0     0  0            999 V2000
    4.3119   -2.3558   -1.5071 C   0  0  0  0  0  0  0  0  0  0  0  0
    4.8667   -0.9483   -1.4309 C   0  0  0  0  0  0  0  0  0  0  0  0
    4.2083   -0.1500   -0.4298 O   0  0  0  0  0  0  0  0  0  0  0  0
    2.6756    0.2672   -0.5244 P   0  0  0  0  0  0  0  0  0  0  0  0
    2.0281    0.7555   -2.3038 S   0  0  0  0  0  0  0  0  0  0  0  0
    2.6119    1.4832    0.4767 O   0  0  0  0  0  0  0  0  0  0  0  0
    3.1429    1.4580    1.8292 C   0  0  0  0  0  0  0  0  0  0  0  0
    2.0239    1.3234    2.8424 C   0  0  0  0  0  0  0  0  0  0  0  0
    1.6556   -1.3538    0.4129 S   0  0  0  0  0  0  0  0  0  0  0  0
    0.0265   -0.9515   -0.2305 C   0  0  0  0  0  0  0  0  0  0  0  0
   -0.5795    0.6172    0.5003 S   0  0  0  0  0  0  0  0  0  0  0  0
   -2.6306    0.2747    0.1768 P   0  0  0  0  0  0  0  0  0  0  0  0
   -3.8752    1.6760    0.7430 S   0  0  0  0  0  0  0  0  0  0  0  0
   -2.9240   -1.1724    0.7866 O   0  0  0  0  0  0  0  0  0  0  0  0
   -3.3588   -1.3478    2.1457 C   0  0  0  0  0  0  0  0  0  0  0  0
   -2.2498   -1.0557    3.1369 C   0  0  0  0  0  0  0  0  0  0  0  0
   -2.5723   -0.0493   -1.3764 O   0  0  0  0  0  0  0  0  0  0  0  0
   -3.7425    0.0280   -2.2164 C   0  0  0  0  0  0  0  0  0  0  0  0
   -4.7610   -1.0371   -1.8688 C   0  0  0  0  0  0  0  0  0  0  0  0
    4.9328   -2.9472   -2.1723 H   0  0  0  0  0  0  0  0  0  0  0  0
    4.2995   -2.8131   -0.5210 H   0  0  0  0  0  0  0  0  0  0  0  0
    3.2966   -2.3356   -1.8995 H   0  0  0  0  0  0  0  0  0  0  0  0
    4.7655   -0.4414   -2.3954 H   0  0  0  0  0  0  0  0  0  0  0  0
    5.9114   -0.9427   -1.1167 H   0  0  0  0  0  0  0  0  0  0  0  0
    3.8631    0.6424    1.9147 H   0  0  0  0  0  0  0  0  0  0  0  0
    3.6560    2.4154    1.9330 H   0  0  0  0  0  0  0  0  0  0  0  0
    1.5524    0.3468    2.7708 H   0  0  0  0  0  0  0  0  0  0  0  0
    2.4346    1.4483    3.8393 H   0  0  0  0  0  0  0  0  0  0  0  0
    1.2688    2.0849    2.6649 H   0  0  0  0  0  0  0  0  0  0  0  0
   -0.6457   -1.7604    0.0439 H   0  0  0  0  0  0  0  0  0  0  0  0
    0.0892   -0.8266   -1.3121 H   0  0  0  0  0  0  0  0  0  0  0  0
   -4.2143   -0.6882    2.3225 H   0  0  0  0  0  0  0  0  0  0  0  0
   -3.6766   -2.3904    2.1889 H   0  0  0  0  0  0  0  0  0  0  0  0
   -1.3738   -1.6630    2.9220 H   0  0  0  0  0  0  0  0  0  0  0  0
   -1.9726   -0.0033    3.0823 H   0  0  0  0  0  0  0  0  0  0  0  0
   -2.5996   -1.2750    4.1406 H   0  0  0  0  0  0  0  0  0  0  0  0
   -4.1770    1.0273   -2.1120 H   0  0  0  0  0  0  0  0  0  0  0  0
   -3.3460   -0.0995   -3.2247 H   0  0  0  0  0  0  0  0  0  0  0  0
   -4.2978   -2.0201   -1.8820 H   0  0  0  0  0  0  0  0  0  0  0  0
   -5.1671   -0.8493   -0.8757 H   0  0  0  0  0  0  0  0  0  0  0  0
   -5.5702   -1.0081   -2.5917 H   0  0  0  0  0  0  0  0  0  0  0  0
  1  2  1  0  0  0  0
  2  3  1  0  0  0  0
  3  4  2  0  0  0  0
  4  5  2  0  0  0  0
  4  6  2  0  0  0  0
  6  7  1  0  0  0  0
  7  8  1  0  0  0  0
  4  9  1  0  0  0  0
  9 10  1  0  0  0  0
 10 11  1  0  0  0  0
 11 12  1  0  0  0  0
 12 13  2  0  0  0  0
 12 14  2  0  0  0  0
 14 15  1  0  0  0  0
 15 16  1  0  0  0  0
 12 17  2  0  0  0  0
 17 18  1  0  0  0  0
 18 19  1  0  0  0  0
  1 20  1  0  0  0  0
  1 21  1  0  0  0  0
  1 22  1  0  0  0  0
  2 23  1  0  0  0  0
  2 24  1  0  0  0  0
  7 25  1  0  0  0  0
  7 26  1  0  0  0  0
  8 27  1  0  0  0  0
  8 28  1  0  0  0  0
  8 29  1  0  0  0  0
 10 30  1  0  0  0  0
 10 31  1  0  0  0  0
 15 32  1  0  0  0  0
 15 33  1  0  0  0  0
 16 34  1  0  0  0  0
 16 35  1  0  0  0  0
 16 36  1  0  0  0  0
 18 37  1  0  0  0  0
 18 38  1  0  0  0  0
 19 39  1  0  0  0  0
 19 40  1  0  0  0  0
 19 41  1  0  0  0  0
M  END
