 xtb: 6.7.1 (edcfbbe)
          04092505213D

 41 40  0     0  0            999 V2000
    5.7731    1.0925   -1.1045 C   0  0  0  0  0  0  0  0  0  0  0  0
    4.3692    0.5766   -1.3462 C   0  0  0  0  0  0  0  0  0  0  0  0
    3.6898    0.5395   -0.0738 O   0  0  0  0  0  0  0  0  0  0  0  0
    2.1198    0.3288    0.0138 P   0  0  0  0  0  0  0  0  0  0  0  0
    1.0260    1.5885   -1.0144 S   0  0  0  0  0  0  0  0  0  0  0  0
    1.8477    0.4630    1.5569 O   0  0  0  0  0  0  0  0  0  0  0  0
    2.7047   -0.0075    2.6291 C   0  0  0  0  0  0  0  0  0  0  0  0
    2.7410   -1.5187    2.7187 C   0  0  0  0  0  0  0  0  0  0  0  0
    1.8964   -1.7098   -0.5879 S   0  0  0  0  0  0  0  0  0  0  0  0
    0.1209   -1.6974   -0.8631 C   0  0  0  0  0  0  0  0  0  0  0  0
   -0.7913   -1.2842    0.6667 S   0  0  0  0  0  0  0  0  0  0  0  0
   -2.4357   -0.2548   -0.1647 P   0  0  0  0  0  0  0  0  0  0  0  0
   -2.2754    0.2355   -2.0625 S   0  0  0  0  0  0  0  0  0  0  0  0
   -2.7948    0.9446    0.8161 O   0  0  0  0  0  0  0  0  0  0  0  0
   -2.1725    2.2398    0.7720 C   0  0  0  0  0  0  0  0  0  0  0  0
   -1.1704    2.3835    1.8996 C   0  0  0  0  0  0  0  0  0  0  0  0
   -3.5550   -1.3042    0.2247 O   0  0  0  0  0  0  0  0  0  0  0  0
   -4.9580   -0.9975    0.3795 C   0  0  0  0  0  0  0  0  0  0  0  0
   -5.5750   -0.4474   -0.8892 C   0  0  0  0  0  0  0  0  0  0  0  0
    5.7360    2.0912   -0.6788 H   0  0  0  0  0  0  0  0  0  0  0  0
    6.2978    0.4343   -0.4184 H   0  0  0  0  0  0  0  0  0  0  0  0
    6.3065    1.1258   -2.0487 H   0  0  0  0  0  0  0  0  0  0  0  0
    4.3788   -0.4361   -1.7578 H   0  0  0  0  0  0  0  0  0  0  0  0
    3.8090    1.2321   -2.0210 H   0  0  0  0  0  0  0  0  0  0  0  0
    3.7025    0.4060    2.4769 H   0  0  0  0  0  0  0  0  0  0  0  0
    2.2477    0.4336    3.5162 H   0  0  0  0  0  0  0  0  0  0  0  0
    3.2808   -1.9418    1.8749 H   0  0  0  0  0  0  0  0  0  0  0  0
    3.2424   -1.8042    3.6382 H   0  0  0  0  0  0  0  0  0  0  0  0
    1.7289   -1.9176    2.7239 H   0  0  0  0  0  0  0  0  0  0  0  0
   -0.1482   -2.7009   -1.1832 H   0  0  0  0  0  0  0  0  0  0  0  0
   -0.1359   -0.9556   -1.6257 H   0  0  0  0  0  0  0  0  0  0  0  0
   -1.6953    2.3814   -0.2038 H   0  0  0  0  0  0  0  0  0  0  0  0
   -2.9927    2.9525    0.8797 H   0  0  0  0  0  0  0  0  0  0  0  0
   -0.3382    1.6966    1.7575 H   0  0  0  0  0  0  0  0  0  0  0  0
   -0.7859    3.3983    1.9035 H   0  0  0  0  0  0  0  0  0  0  0  0
   -1.6476    2.1692    2.8516 H   0  0  0  0  0  0  0  0  0  0  0  0
   -5.3955   -1.9591    0.6531 H   0  0  0  0  0  0  0  0  0  0  0  0
   -5.0645   -0.2905    1.2049 H   0  0  0  0  0  0  0  0  0  0  0  0
   -5.4112   -1.1324   -1.7179 H   0  0  0  0  0  0  0  0  0  0  0  0
   -6.6414   -0.3086   -0.7416 H   0  0  0  0  0  0  0  0  0  0  0  0
   -5.1226    0.5105   -1.1429 H   0  0  0  0  0  0  0  0  0  0  0  0
  1  2  1  0  0  0  0
  2  3  1  0  0  0  0
  3  4  2  0  0  0  0
  4  5  2  0  0  0  0
  4  6  2  0  0  0  0
  6  7  1  0  0  0  0
  7  8  1  0  0  0  0
  4  9  1  0  0  0  0
  9 10  1  0  0  0  0
 10 11  1  0  0  0  0
 11 12  1  0  0  0  0
 12 13  2  0  0  0  0
 12 14  2  0  0  0  0
 14 15  1  0  0  0  0
 15 16  1  0  0  0  0
 12 17  2  0  0  0  0
 17 18  1  0  0  0  0
 18 19  1  0  0  0  0
  1 20  1  0  0  0  0
  1 21  1  0  0  0  0
  1 22  1  0  0  0  0
  2 23  1  0  0  0  0
  2 24  1  0  0  0  0
  7 25  1  0  0  0  0
  7 26  1  0  0  0  0
  8 27  1  0  0  0  0
  8 28  1  0  0  0  0
  8 29  1  0  0  0  0
 10 30  1  0  0  0  0
 10 31  1  0  0  0  0
 15 32  1  0  0  0  0
 15 33  1  0  0  0  0
 16 34  1  0  0  0  0
 16 35  1  0  0  0  0
 16 36  1  0  0  0  0
 18 37  1  0  0  0  0
 18 38  1  0  0  0  0
 19 39  1  0  0  0  0
 19 40  1  0  0  0  0
 19 41  1  0  0  0  0
M  END
