 xtb: 6.7.1 (edcfbbe)
          04092505203D

 41 40  0     0  0            999 V2000
    2.2127    1.6487   -1.9431 C   0  0  0  0  0  0  0  0  0  0  0  0
    1.4642    0.3692   -2.2572 C   0  0  0  0  0  0  0  0  0  0  0  0
    0.9559   -0.2712   -1.0690 O   0  0  0  0  0  0  0  0  0  0  0  0
    1.9858   -0.9447   -0.0493 P   0  0  0  0  0  0  0  0  0  0  0  0
    3.6136   -1.6871   -0.8408 S   0  0  0  0  0  0  0  0  0  0  0  0
    0.9871   -2.0167    0.5725 O   0  0  0  0  0  0  0  0  0  0  0  0
    1.4949   -3.1882    1.2410 C   0  0  0  0  0  0  0  0  0  0  0  0
    2.0937   -2.8636    2.5954 C   0  0  0  0  0  0  0  0  0  0  0  0
    2.2544    0.4971    1.4814 S   0  0  0  0  0  0  0  0  0  0  0  0
    0.5146    0.8006    1.9154 C   0  0  0  0  0  0  0  0  0  0  0  0
   -0.3363    1.9390    0.7741 S   0  0  0  0  0  0  0  0  0  0  0  0
   -1.8103    0.7594   -0.1943 P   0  0  0  0  0  0  0  0  0  0  0  0
   -1.9970    0.9157   -2.1419 S   0  0  0  0  0  0  0  0  0  0  0  0
   -3.1618    1.1339    0.5780 O   0  0  0  0  0  0  0  0  0  0  0  0
   -3.9945    2.2274    0.1720 C   0  0  0  0  0  0  0  0  0  0  0  0
   -3.3296    3.5681    0.4125 C   0  0  0  0  0  0  0  0  0  0  0  0
   -1.5397   -0.6817    0.4063 O   0  0  0  0  0  0  0  0  0  0  0  0
   -2.0138   -1.8577   -0.2771 C   0  0  0  0  0  0  0  0  0  0  0  0
   -3.5239   -1.9588   -0.2552 C   0  0  0  0  0  0  0  0  0  0  0  0
    1.5792    2.3372   -1.3879 H   0  0  0  0  0  0  0  0  0  0  0  0
    3.1011    1.4257   -1.3517 H   0  0  0  0  0  0  0  0  0  0  0  0
    2.5168    2.1168   -2.8738 H   0  0  0  0  0  0  0  0  0  0  0  0
    2.1152   -0.3404   -2.7770 H   0  0  0  0  0  0  0  0  0  0  0  0
    0.5740    0.5623   -2.8588 H   0  0  0  0  0  0  0  0  0  0  0  0
    0.6254   -3.8410    1.3322 H   0  0  0  0  0  0  0  0  0  0  0  0
    2.2422   -3.6586    0.5942 H   0  0  0  0  0  0  0  0  0  0  0  0
    2.9772   -2.2384    2.4733 H   0  0  0  0  0  0  0  0  0  0  0  0
    1.3734   -2.3398    3.2188 H   0  0  0  0  0  0  0  0  0  0  0  0
    2.3835   -3.7881    3.0848 H   0  0  0  0  0  0  0  0  0  0  0  0
    0.5429    1.2945    2.8827 H   0  0  0  0  0  0  0  0  0  0  0  0
   -0.0281   -0.1386    1.9525 H   0  0  0  0  0  0  0  0  0  0  0  0
   -4.2340    2.1049   -0.8898 H   0  0  0  0  0  0  0  0  0  0  0  0
   -4.8983    2.1115    0.7716 H   0  0  0  0  0  0  0  0  0  0  0  0
   -4.0216    4.3646    0.1585 H   0  0  0  0  0  0  0  0  0  0  0  0
   -3.0326    3.6643    1.4535 H   0  0  0  0  0  0  0  0  0  0  0  0
   -2.4410    3.6578   -0.2134 H   0  0  0  0  0  0  0  0  0  0  0  0
   -1.6370   -1.8357   -1.3047 H   0  0  0  0  0  0  0  0  0  0  0  0
   -1.5442   -2.6800    0.2635 H   0  0  0  0  0  0  0  0  0  0  0  0
   -3.8240   -2.9136   -0.6757 H   0  0  0  0  0  0  0  0  0  0  0  0
   -3.8915   -1.8781    0.7644 H   0  0  0  0  0  0  0  0  0  0  0  0
   -3.9587   -1.1584   -0.8521 H   0  0  0  0  0  0  0  0  0  0  0  0
  1  2  1  0  0  0  0
  2  3  1  0  0  0  0
  3  4  1  0  0  0  0
  4  5  2  0  0  0  0
  4  6  2  0  0  0  0
  6  7  1  0  0  0  0
  7  8  1  0  0  0  0
  4  9  1  0  0  0  0
  9 10  1  0  0  0  0
 10 11  1  0  0  0  0
 11 12  1  0  0  0  0
 12 13  2  0  0  0  0
 12 14  1  0  0  0  0
 14 15  1  0  0  0  0
 15 16  1  0  0  0  0
 12 17  1  0  0  0  0
 17 18  1  0  0  0  0
 18 19  1  0  0  0  0
  1 20  1  0  0  0  0
  1 21  1  0  0  0  0
  1 22  1  0  0  0  0
  2 23  1  0  0  0  0
  2 24  1  0  0  0  0
  7 25  1  0  0  0  0
  7 26  1  0  0  0  0
  8 27  1  0  0  0  0
  8 28  1  0  0  0  0
  8 29  1  0  0  0  0
 10 30  1  0  0  0  0
 10 31  1  0  0  0  0
 15 32  1  0  0  0  0
 15 33  1  0  0  0  0
 16 34  1  0  0  0  0
 16 35  1  0  0  0  0
 16 36  1  0  0  0  0
 18 37  1  0  0  0  0
 18 38  1  0  0  0  0
 19 39  1  0  0  0  0
 19 40  1  0  0  0  0
 19 41  1  0  0  0  0
M  END
