 xtb: 6.7.1 (edcfbbe)
          04092505203D

 41 40  0     0  0            999 V2000
    4.6388   -1.4921   -0.7339 C   0  0  0  0  0  0  0  0  0  0  0  0
    4.6497   -0.0834   -0.1763 C   0  0  0  0  0  0  0  0  0  0  0  0
    3.4538    0.2211    0.5614 O   0  0  0  0  0  0  0  0  0  0  0  0
    2.0311    0.3764   -0.1354 P   0  0  0  0  0  0  0  0  0  0  0  0
    2.0876    1.2354   -1.9012 S   0  0  0  0  0  0  0  0  0  0  0  0
    1.2115    1.0964    1.0140 O   0  0  0  0  0  0  0  0  0  0  0  0
    1.1665    2.5282    1.1565 C   0  0  0  0  0  0  0  0  0  0  0  0
    2.5152    3.1116    1.5191 C   0  0  0  0  0  0  0  0  0  0  0  0
    1.2426   -1.5658   -0.0109 S   0  0  0  0  0  0  0  0  0  0  0  0
    0.0790   -1.5617   -1.4182 C   0  0  0  0  0  0  0  0  0  0  0  0
   -1.6231   -1.8866   -0.9158 S   0  0  0  0  0  0  0  0  0  0  0  0
   -2.0045   -0.0409    0.0703 P   0  0  0  0  0  0  0  0  0  0  0  0
   -1.4038    1.5296   -0.9348 S   0  0  0  0  0  0  0  0  0  0  0  0
   -1.4152   -0.0782    1.5282 O   0  0  0  0  0  0  0  0  0  0  0  0
   -1.8922   -0.9228    2.6110 C   0  0  0  0  0  0  0  0  0  0  0  0
   -1.1728   -2.2559    2.6412 C   0  0  0  0  0  0  0  0  0  0  0  0
   -3.5669   -0.1199    0.3375 O   0  0  0  0  0  0  0  0  0  0  0  0
   -4.5131   -0.0365   -0.7492 C   0  0  0  0  0  0  0  0  0  0  0  0
   -5.8765    0.2540   -0.1560 C   0  0  0  0  0  0  0  0  0  0  0  0
    4.4178   -2.2089    0.0528 H   0  0  0  0  0  0  0  0  0  0  0  0
    3.8814   -1.5778   -1.5117 H   0  0  0  0  0  0  0  0  0  0  0  0
    5.6103   -1.7138   -1.1638 H   0  0  0  0  0  0  0  0  0  0  0  0
    4.7507    0.6473   -0.9854 H   0  0  0  0  0  0  0  0  0  0  0  0
    5.4483    0.0555    0.5535 H   0  0  0  0  0  0  0  0  0  0  0  0
    0.7920    2.9565    0.2202 H   0  0  0  0  0  0  0  0  0  0  0  0
    0.4268    2.6849    1.9434 H   0  0  0  0  0  0  0  0  0  0  0  0
    3.2074    2.9906    0.6867 H   0  0  0  0  0  0  0  0  0  0  0  0
    2.4003    4.1701    1.7306 H   0  0  0  0  0  0  0  0  0  0  0  0
    2.9195    2.6060    2.3922 H   0  0  0  0  0  0  0  0  0  0  0  0
    0.3555   -2.3728   -2.0865 H   0  0  0  0  0  0  0  0  0  0  0  0
    0.1403   -0.5937   -1.9232 H   0  0  0  0  0  0  0  0  0  0  0  0
   -1.6731   -0.3353    3.5040 H   0  0  0  0  0  0  0  0  0  0  0  0
   -2.9702   -1.0502    2.5058 H   0  0  0  0  0  0  0  0  0  0  0  0
   -0.0965   -2.1026    2.6551 H   0  0  0  0  0  0  0  0  0  0  0  0
   -1.4685   -2.7910    3.5382 H   0  0  0  0  0  0  0  0  0  0  0  0
   -1.4270   -2.8562    1.7713 H   0  0  0  0  0  0  0  0  0  0  0  0
   -4.1920    0.7592   -1.4293 H   0  0  0  0  0  0  0  0  0  0  0  0
   -4.5017   -0.9904   -1.2825 H   0  0  0  0  0  0  0  0  0  0  0  0
   -5.8562    1.1968    0.3835 H   0  0  0  0  0  0  0  0  0  0  0  0
   -6.6055    0.3157   -0.9572 H   0  0  0  0  0  0  0  0  0  0  0  0
   -6.1613   -0.5393    0.5289 H   0  0  0  0  0  0  0  0  0  0  0  0
  1  2  1  0  0  0  0
  2  3  1  0  0  0  0
  3  4  2  0  0  0  0
  4  5  2  0  0  0  0
  4  6  2  0  0  0  0
  6  7  1  0  0  0  0
  7  8  1  0  0  0  0
  4  9  1  0  0  0  0
  9 10  1  0  0  0  0
 10 11  1  0  0  0  0
 11 12  1  0  0  0  0
 12 13  2  0  0  0  0
 12 14  2  0  0  0  0
 14 15  1  0  0  0  0
 15 16  1  0  0  0  0
 12 17  2  0  0  0  0
 17 18  1  0  0  0  0
 18 19  1  0  0  0  0
  1 20  1  0  0  0  0
  1 21  1  0  0  0  0
  1 22  1  0  0  0  0
  2 23  1  0  0  0  0
  2 24  1  0  0  0  0
  7 25  1  0  0  0  0
  7 26  1  0  0  0  0
  8 27  1  0  0  0  0
  8 28  1  0  0  0  0
  8 29  1  0  0  0  0
 10 30  1  0  0  0  0
 10 31  1  0  0  0  0
 15 32  1  0  0  0  0
 15 33  1  0  0  0  0
 16 34  1  0  0  0  0
 16 35  1  0  0  0  0
 16 36  1  0  0  0  0
 18 37  1  0  0  0  0
 18 38  1  0  0  0  0
 19 39  1  0  0  0  0
 19 40  1  0  0  0  0
 19 41  1  0  0  0  0
M  END
