 xtb: 6.7.1 (edcfbbe)
          04032519443D

  8  7  0     0  0            999 V2000
   -0.8416   -0.6147   -0.9563 C   0  0  0  0  0  0  0  0  0  0  0  0
    0.5190    0.0245   -0.7966 C   0  0  0  0  0  0  0  0  0  0  0  0
    1.5105   -0.8641    0.3957 Cl  0  0  0  0  0  0  0  0  0  0  0  0
    0.3718    1.7250   -0.2665 Cl  0  0  0  0  0  0  0  0  0  0  0  0
   -1.7412   -0.6136    0.5966 Cl  0  0  0  0  0  0  0  0  0  0  0  0
   -1.4389   -0.0528   -1.6728 H   0  0  0  0  0  0  0  0  0  0  0  0
   -0.7347   -1.6540   -1.2637 H   0  0  0  0  0  0  0  0  0  0  0  0
    1.0684    0.0248   -1.7399 H   0  0  0  0  0  0  0  0  0  0  0  0
  1  2  1  0  0  0  0
  2  3  1  0  0  0  0
  2  4  1  0  0  0  0
  1  5  1  0  0  0  0
  1  6  1  0  0  0  0
  1  7  1  0  0  0  0
  2  8  1  0  0  0  0
M  END
