 xtb: 6.7.1 (edcfbbe)
          04032520243D

 19 20  0     0  0            999 V2000
   -2.9271   -0.3473    0.0002 C   0  0  0  0  0  0  0  0  0  0  0  0
   -2.6776    1.0347    0.0001 C   0  0  0  0  0  0  0  0  0  0  0  0
   -1.3953    1.5070   -0.0001 C   0  0  0  0  0  0  0  0  0  0  0  0
   -0.2987    0.6180   -0.0002 C   0  0  0  0  0  0  0  0  0  0  0  0
    1.0311    1.0761   -0.0001 C   0  0  0  0  0  0  0  0  0  0  0  0
    2.0803    0.1888   -0.0000 C   0  0  0  0  0  0  0  0  0  0  0  0
    1.8277   -1.1979   -0.0000 C   0  0  0  0  0  0  0  0  0  0  0  0
    0.5446   -1.6650   -0.0001 C   0  0  0  0  0  0  0  0  0  0  0  0
   -0.5524   -0.7794   -0.0001 C   0  0  0  0  0  0  0  0  0  0  0  0
   -1.8871   -1.2342    0.0001 C   0  0  0  0  0  0  0  0  0  0  0  0
    3.3503    0.6778    0.0003 O   0  0  0  0  0  0  0  0  0  0  0  0
   -3.9471   -0.7015    0.0003 H   0  0  0  0  0  0  0  0  0  0  0  0
   -3.5105    1.7221    0.0001 H   0  0  0  0  0  0  0  0  0  0  0  0
   -1.1995    2.5694   -0.0002 H   0  0  0  0  0  0  0  0  0  0  0  0
    1.2371    2.1356   -0.0001 H   0  0  0  0  0  0  0  0  0  0  0  0
    2.6594   -1.8879    0.0001 H   0  0  0  0  0  0  0  0  0  0  0  0
    0.3545   -2.7282   -0.0001 H   0  0  0  0  0  0  0  0  0  0  0  0
   -2.0716   -2.2988    0.0001 H   0  0  0  0  0  0  0  0  0  0  0  0
    3.9942   -0.0466    0.0011 H   0  0  0  0  0  0  0  0  0  0  0  0
  1  2  4  0  0  0  0
  2  3  2  0  0  0  0
  3  4  4  0  0  0  0
  4  5  4  0  0  0  0
  5  6  4  0  0  0  0
  6  7  4  0  0  0  0
  7  8  2  0  0  0  0
  4  9  4  0  0  0  0
  8  9  4  0  0  0  0
  1 10  2  0  0  0  0
  9 10  4  0  0  0  0
  6 11  1  0  0  0  0
  1 12  1  0  0  0  0
  2 13  1  0  0  0  0
  3 14  1  0  0  0  0
  5 15  1  0  0  0  0
  7 16  1  0  0  0  0
  8 17  1  0  0  0  0
 10 18  1  0  0  0  0
 11 19  1  0  0  0  0
M  END
