 xtb: 6.7.1 (edcfbbe)
          04092505203D

 41 40  0     0  0            999 V2000
    4.2839   -0.9500    1.4156 C   0  0  0  0  0  0  0  0  0  0  0  0
    4.7485   -0.3499    0.1058 C   0  0  0  0  0  0  0  0  0  0  0  0
    3.7319   -0.4024   -0.9262 O   0  0  0  0  0  0  0  0  0  0  0  0
    2.3181    0.2930   -0.8685 P   0  0  0  0  0  0  0  0  0  0  0  0
    1.6103    0.5495   -2.6768 S   0  0  0  0  0  0  0  0  0  0  0  0
    2.6517    1.6091   -0.0411 O   0  0  0  0  0  0  0  0  0  0  0  0
    1.7243    2.6879    0.1698 C   0  0  0  0  0  0  0  0  0  0  0  0
    1.1054    2.6039    1.5512 C   0  0  0  0  0  0  0  0  0  0  0  0
    1.1099   -0.9110    0.4066 S   0  0  0  0  0  0  0  0  0  0  0  0
   -0.0145   -1.6475   -0.8238 C   0  0  0  0  0  0  0  0  0  0  0  0
   -1.6433   -1.9746   -0.1282 S   0  0  0  0  0  0  0  0  0  0  0  0
   -2.1761    0.0392    0.3362 P   0  0  0  0  0  0  0  0  0  0  0  0
   -1.5617    1.4352   -0.8894 S   0  0  0  0  0  0  0  0  0  0  0  0
   -1.6768    0.2840    1.8098 O   0  0  0  0  0  0  0  0  0  0  0  0
   -2.0316   -0.5910    2.9159 C   0  0  0  0  0  0  0  0  0  0  0  0
   -0.7726   -1.1727    3.5250 C   0  0  0  0  0  0  0  0  0  0  0  0
   -3.7522   -0.0487    0.5447 O   0  0  0  0  0  0  0  0  0  0  0  0
   -4.6984    0.1133   -0.5254 C   0  0  0  0  0  0  0  0  0  0  0  0
   -4.6011   -0.9912   -1.5581 C   0  0  0  0  0  0  0  0  0  0  0  0
    3.9441   -1.9717    1.2683 H   0  0  0  0  0  0  0  0  0  0  0  0
    5.1112   -0.9452    2.1185 H   0  0  0  0  0  0  0  0  0  0  0  0
    3.4638   -0.3653    1.8289 H   0  0  0  0  0  0  0  0  0  0  0  0
    5.5703   -0.9201   -0.3302 H   0  0  0  0  0  0  0  0  0  0  0  0
    5.0462    0.6921    0.2354 H   0  0  0  0  0  0  0  0  0  0  0  0
    2.3235    3.5941    0.0603 H   0  0  0  0  0  0  0  0  0  0  0  0
    0.9576    2.6686   -0.6114 H   0  0  0  0  0  0  0  0  0  0  0  0
    0.4658    1.7274    1.6328 H   0  0  0  0  0  0  0  0  0  0  0  0
    1.8841    2.5506    2.3067 H   0  0  0  0  0  0  0  0  0  0  0  0
    0.4992    3.4887    1.7175 H   0  0  0  0  0  0  0  0  0  0  0  0
    0.3799   -2.6090   -1.1436 H   0  0  0  0  0  0  0  0  0  0  0  0
   -0.0957   -0.9548   -1.6667 H   0  0  0  0  0  0  0  0  0  0  0  0
   -2.5670    0.0411    3.6257 H   0  0  0  0  0  0  0  0  0  0  0  0
   -2.6969   -1.3764    2.5501 H   0  0  0  0  0  0  0  0  0  0  0  0
   -0.1127   -0.3751    3.8533 H   0  0  0  0  0  0  0  0  0  0  0  0
   -1.0440   -1.7885    4.3762 H   0  0  0  0  0  0  0  0  0  0  0  0
   -0.2435   -1.7812    2.7951 H   0  0  0  0  0  0  0  0  0  0  0  0
   -5.6644    0.1061   -0.0184 H   0  0  0  0  0  0  0  0  0  0  0  0
   -4.5296    1.0897   -0.9900 H   0  0  0  0  0  0  0  0  0  0  0  0
   -3.6606   -0.9127   -2.1020 H   0  0  0  0  0  0  0  0  0  0  0  0
   -4.6495   -1.9655   -1.0782 H   0  0  0  0  0  0  0  0  0  0  0  0
   -5.4203   -0.8943   -2.2634 H   0  0  0  0  0  0  0  0  0  0  0  0
  1  2  1  0  0  0  0
  2  3  1  0  0  0  0
  3  4  2  0  0  0  0
  4  5  2  0  0  0  0
  4  6  2  0  0  0  0
  6  7  1  0  0  0  0
  7  8  1  0  0  0  0
  4  9  1  0  0  0  0
  9 10  1  0  0  0  0
 10 11  1  0  0  0  0
 11 12  1  0  0  0  0
 12 13  2  0  0  0  0
 12 14  2  0  0  0  0
 14 15  1  0  0  0  0
 15 16  1  0  0  0  0
 12 17  2  0  0  0  0
 17 18  1  0  0  0  0
 18 19  1  0  0  0  0
  1 20  1  0  0  0  0
  1 21  1  0  0  0  0
  1 22  1  0  0  0  0
  2 23  1  0  0  0  0
  2 24  1  0  0  0  0
  7 25  1  0  0  0  0
  7 26  1  0  0  0  0
  8 27  1  0  0  0  0
  8 28  1  0  0  0  0
  8 29  1  0  0  0  0
 10 30  1  0  0  0  0
 10 31  1  0  0  0  0
 15 32  1  0  0  0  0
 15 33  1  0  0  0  0
 16 34  1  0  0  0  0
 16 35  1  0  0  0  0
 16 36  1  0  0  0  0
 18 37  1  0  0  0  0
 18 38  1  0  0  0  0
 19 39  1  0  0  0  0
 19 40  1  0  0  0  0
 19 41  1  0  0  0  0
M  END
