 xtb: 6.7.1 (edcfbbe)
          04092505203D

 41 40  0     0  0            999 V2000
    4.6064   -1.0515   -1.9025 C   0  0  0  0  0  0  0  0  0  0  0  0
    3.8196   -2.0985   -1.1414 C   0  0  0  0  0  0  0  0  0  0  0  0
    3.1832   -1.5741    0.0378 O   0  0  0  0  0  0  0  0  0  0  0  0
    2.2513   -0.2906    0.0960 P   0  0  0  0  0  0  0  0  0  0  0  0
    3.1189    1.4738    0.0988 S   0  0  0  0  0  0  0  0  0  0  0  0
    1.4112   -0.6013    1.4062 O   0  0  0  0  0  0  0  0  0  0  0  0
    1.7324   -0.0144    2.6821 C   0  0  0  0  0  0  0  0  0  0  0  0
    2.9923   -0.6239    3.2590 C   0  0  0  0  0  0  0  0  0  0  0  0
    0.8213   -0.6398   -1.4247 S   0  0  0  0  0  0  0  0  0  0  0  0
    0.1211    1.0313   -1.4145 C   0  0  0  0  0  0  0  0  0  0  0  0
   -0.7913    1.4106    0.0969 S   0  0  0  0  0  0  0  0  0  0  0  0
   -2.6388    0.4298   -0.3717 P   0  0  0  0  0  0  0  0  0  0  0  0
   -2.8865    0.0369   -2.2737 S   0  0  0  0  0  0  0  0  0  0  0  0
   -3.7910    1.3793    0.1237 O   0  0  0  0  0  0  0  0  0  0  0  0
   -4.1781    1.6123    1.5001 C   0  0  0  0  0  0  0  0  0  0  0  0
   -3.0796    2.2680    2.3092 C   0  0  0  0  0  0  0  0  0  0  0  0
   -2.7621   -0.7648    0.6763 O   0  0  0  0  0  0  0  0  0  0  0  0
   -1.8485   -1.8636    0.8242 C   0  0  0  0  0  0  0  0  0  0  0  0
   -1.9362   -2.8497   -0.3230 C   0  0  0  0  0  0  0  0  0  0  0  0
    3.9347   -0.2919   -2.3010 H   0  0  0  0  0  0  0  0  0  0  0  0
    5.3258   -0.5651   -1.2478 H   0  0  0  0  0  0  0  0  0  0  0  0
    5.1323   -1.5233   -2.7263 H   0  0  0  0  0  0  0  0  0  0  0  0
    4.4716   -2.8833   -0.7536 H   0  0  0  0  0  0  0  0  0  0  0  0
    3.0463   -2.5389   -1.7772 H   0  0  0  0  0  0  0  0  0  0  0  0
    1.8455    1.0668    2.5513 H   0  0  0  0  0  0  0  0  0  0  0  0
    0.8582   -0.2226    3.3001 H   0  0  0  0  0  0  0  0  0  0  0  0
    3.1810   -0.2060    4.2427 H   0  0  0  0  0  0  0  0  0  0  0  0
    2.8880   -1.7029    3.3341 H   0  0  0  0  0  0  0  0  0  0  0  0
    3.8364   -0.3983    2.6078 H   0  0  0  0  0  0  0  0  0  0  0  0
   -0.5528    1.0912   -2.2699 H   0  0  0  0  0  0  0  0  0  0  0  0
    0.9290    1.7598   -1.4823 H   0  0  0  0  0  0  0  0  0  0  0  0
   -5.0487    2.2629    1.4044 H   0  0  0  0  0  0  0  0  0  0  0  0
   -4.4733    0.6572    1.9380 H   0  0  0  0  0  0  0  0  0  0  0  0
   -3.4575    2.4987    3.3004 H   0  0  0  0  0  0  0  0  0  0  0  0
   -2.2253    1.5995    2.4031 H   0  0  0  0  0  0  0  0  0  0  0  0
   -2.7497    3.1858    1.8290 H   0  0  0  0  0  0  0  0  0  0  0  0
   -0.8312   -1.4733    0.9259 H   0  0  0  0  0  0  0  0  0  0  0  0
   -2.1548   -2.3262    1.7647 H   0  0  0  0  0  0  0  0  0  0  0  0
   -1.2994   -3.7021   -0.1091 H   0  0  0  0  0  0  0  0  0  0  0  0
   -2.9616   -3.1871   -0.4510 H   0  0  0  0  0  0  0  0  0  0  0  0
   -1.6049   -2.3883   -1.2514 H   0  0  0  0  0  0  0  0  0  0  0  0
  1  2  1  0  0  0  0
  2  3  1  0  0  0  0
  3  4  2  0  0  0  0
  4  5  2  0  0  0  0
  4  6  2  0  0  0  0
  6  7  1  0  0  0  0
  7  8  1  0  0  0  0
  4  9  1  0  0  0  0
  9 10  1  0  0  0  0
 10 11  1  0  0  0  0
 11 12  1  0  0  0  0
 12 13  2  0  0  0  0
 12 14  2  0  0  0  0
 14 15  1  0  0  0  0
 15 16  1  0  0  0  0
 12 17  2  0  0  0  0
 17 18  1  0  0  0  0
 18 19  1  0  0  0  0
  1 20  1  0  0  0  0
  1 21  1  0  0  0  0
  1 22  1  0  0  0  0
  2 23  1  0  0  0  0
  2 24  1  0  0  0  0
  7 25  1  0  0  0  0
  7 26  1  0  0  0  0
  8 27  1  0  0  0  0
  8 28  1  0  0  0  0
  8 29  1  0  0  0  0
 10 30  1  0  0  0  0
 10 31  1  0  0  0  0
 15 32  1  0  0  0  0
 15 33  1  0  0  0  0
 16 34  1  0  0  0  0
 16 35  1  0  0  0  0
 16 36  1  0  0  0  0
 18 37  1  0  0  0  0
 18 38  1  0  0  0  0
 19 39  1  0  0  0  0
 19 40  1  0  0  0  0
 19 41  1  0  0  0  0
M  END
