 xtb: 6.7.1 (edcfbbe)
          04092505203D

 41 40  0     0  0            999 V2000
    3.1491   -2.6242   -1.6310 C   0  0  0  0  0  0  0  0  0  0  0  0
    4.3037   -1.8004   -1.1036 C   0  0  0  0  0  0  0  0  0  0  0  0
    3.9784   -0.3909   -0.9993 O   0  0  0  0  0  0  0  0  0  0  0  0
    2.8335    0.2242   -0.1148 P   0  0  0  0  0  0  0  0  0  0  0  0
    3.1386    2.1195    0.2714 S   0  0  0  0  0  0  0  0  0  0  0  0
    2.8578   -0.7353    1.1567 O   0  0  0  0  0  0  0  0  0  0  0  0
    2.1175   -0.4685    2.3627 C   0  0  0  0  0  0  0  0  0  0  0  0
    0.9748   -1.4543    2.5076 C   0  0  0  0  0  0  0  0  0  0  0  0
    1.0198   -0.1683   -1.1863 S   0  0  0  0  0  0  0  0  0  0  0  0
    0.1517    1.3812   -0.8617 C   0  0  0  0  0  0  0  0  0  0  0  0
   -0.7893    1.3672    0.6890 S   0  0  0  0  0  0  0  0  0  0  0  0
   -2.3482    0.1293   -0.0189 P   0  0  0  0  0  0  0  0  0  0  0  0
   -2.9672    0.4394   -1.8589 S   0  0  0  0  0  0  0  0  0  0  0  0
   -3.4716    0.2154    1.1001 O   0  0  0  0  0  0  0  0  0  0  0  0
   -4.5288    1.1886    1.0582 C   0  0  0  0  0  0  0  0  0  0  0  0
   -4.0151    2.5988    1.2660 C   0  0  0  0  0  0  0  0  0  0  0  0
   -1.7072   -1.2906    0.2656 O   0  0  0  0  0  0  0  0  0  0  0  0
   -2.1509   -2.4864   -0.4087 C   0  0  0  0  0  0  0  0  0  0  0  0
   -3.5516   -2.8795    0.0105 C   0  0  0  0  0  0  0  0  0  0  0  0
    2.8040   -2.2307   -2.5839 H   0  0  0  0  0  0  0  0  0  0  0  0
    3.4764   -3.6507   -1.7645 H   0  0  0  0  0  0  0  0  0  0  0  0
    2.3201   -2.6049   -0.9259 H   0  0  0  0  0  0  0  0  0  0  0  0
    5.1513   -1.8070   -1.7904 H   0  0  0  0  0  0  0  0  0  0  0  0
    4.6179   -2.1499   -0.1186 H   0  0  0  0  0  0  0  0  0  0  0  0
    2.8405   -0.5828    3.1732 H   0  0  0  0  0  0  0  0  0  0  0  0
    1.7580    0.5657    2.3483 H   0  0  0  0  0  0  0  0  0  0  0  0
    0.4700   -1.2735    3.4510 H   0  0  0  0  0  0  0  0  0  0  0  0
    0.2570   -1.3346    1.6997 H   0  0  0  0  0  0  0  0  0  0  0  0
    1.3571   -2.4711    2.4928 H   0  0  0  0  0  0  0  0  0  0  0  0
   -0.5354    1.5410   -1.6929 H   0  0  0  0  0  0  0  0  0  0  0  0
    0.8798    2.1902   -0.7824 H   0  0  0  0  0  0  0  0  0  0  0  0
   -5.0383    1.1052    0.0927 H   0  0  0  0  0  0  0  0  0  0  0  0
   -5.2001    0.8818    1.8612 H   0  0  0  0  0  0  0  0  0  0  0  0
   -3.4180    2.6545    2.1728 H   0  0  0  0  0  0  0  0  0  0  0  0
   -3.3959    2.8989    0.4213 H   0  0  0  0  0  0  0  0  0  0  0  0
   -4.8557    3.2809    1.3441 H   0  0  0  0  0  0  0  0  0  0  0  0
   -2.1002   -2.3130   -1.4882 H   0  0  0  0  0  0  0  0  0  0  0  0
   -1.4150   -3.2379   -0.1204 H   0  0  0  0  0  0  0  0  0  0  0  0
   -3.6119   -2.9563    1.0928 H   0  0  0  0  0  0  0  0  0  0  0  0
   -4.2640   -2.1288   -0.3295 H   0  0  0  0  0  0  0  0  0  0  0  0
   -3.8069   -3.8351   -0.4366 H   0  0  0  0  0  0  0  0  0  0  0  0
  1  2  1  0  0  0  0
  2  3  1  0  0  0  0
  3  4  2  0  0  0  0
  4  5  2  0  0  0  0
  4  6  2  0  0  0  0
  6  7  1  0  0  0  0
  7  8  1  0  0  0  0
  4  9  1  0  0  0  0
  9 10  1  0  0  0  0
 10 11  1  0  0  0  0
 11 12  1  0  0  0  0
 12 13  2  0  0  0  0
 12 14  2  0  0  0  0
 14 15  1  0  0  0  0
 15 16  1  0  0  0  0
 12 17  2  0  0  0  0
 17 18  1  0  0  0  0
 18 19  1  0  0  0  0
  1 20  1  0  0  0  0
  1 21  1  0  0  0  0
  1 22  1  0  0  0  0
  2 23  1  0  0  0  0
  2 24  1  0  0  0  0
  7 25  1  0  0  0  0
  7 26  1  0  0  0  0
  8 27  1  0  0  0  0
  8 28  1  0  0  0  0
  8 29  1  0  0  0  0
 10 30  1  0  0  0  0
 10 31  1  0  0  0  0
 15 32  1  0  0  0  0
 15 33  1  0  0  0  0
 16 34  1  0  0  0  0
 16 35  1  0  0  0  0
 16 36  1  0  0  0  0
 18 37  1  0  0  0  0
 18 38  1  0  0  0  0
 19 39  1  0  0  0  0
 19 40  1  0  0  0  0
 19 41  1  0  0  0  0
M  END
