12
 xtb: 6.7.1 (edcfbbe)
C            0.19896060602792        1.51859649830995       -0.00007082952921
C            1.09676620511760        0.51505514367758       -0.00010987286218
C            0.69928363037220       -0.86881966736775       -0.00006204762538
O            1.46528795762092       -1.83296221835576       -0.00007742528485
N           -0.68498604915740       -1.03197530276384       -0.00003035399385
C           -1.64881509508684       -0.04128053299990        0.00001220251734
O           -2.85340464396285       -0.28352989747889        0.00009477591395
N           -1.13941429114807        1.23657946558542       -0.00003612015238
F            2.41749952553203        0.76744619940319       -0.00014409410255
H            0.48447696470181        2.56400618811879       -0.00007329740377
H           -1.03113897743392       -1.98622537455930        0.00000841691028
H           -1.80903988594405        1.99564260313941        0.00005007483385
