 xtb: 6.7.1 (edcfbbe)
          04092505203D

 41 40  0     0  0            999 V2000
    5.1760   -1.3656   -1.9891 C   0  0  0  0  0  0  0  0  0  0  0  0
    3.6898   -1.3306   -1.6957 C   0  0  0  0  0  0  0  0  0  0  0  0
    3.4309   -0.1859   -0.8602 O   0  0  0  0  0  0  0  0  0  0  0  0
    1.9380    0.2858   -0.5486 P   0  0  0  0  0  0  0  0  0  0  0  0
    0.8740    0.6440   -2.1528 S   0  0  0  0  0  0  0  0  0  0  0  0
    2.2077    1.5781    0.2979 O   0  0  0  0  0  0  0  0  0  0  0  0
    3.2278    1.7357    1.3151 C   0  0  0  0  0  0  0  0  0  0  0  0
    3.0103    0.8141    2.4955 C   0  0  0  0  0  0  0  0  0  0  0  0
    1.2028   -1.3043    0.6707 S   0  0  0  0  0  0  0  0  0  0  0  0
   -0.2027   -1.8747   -0.3297 C   0  0  0  0  0  0  0  0  0  0  0  0
   -1.8118   -1.7245    0.4875 S   0  0  0  0  0  0  0  0  0  0  0  0
   -2.0945    0.3822    0.4161 P   0  0  0  0  0  0  0  0  0  0  0  0
   -0.7424    1.5131    1.2699 S   0  0  0  0  0  0  0  0  0  0  0  0
   -3.5813    0.5242    0.9592 O   0  0  0  0  0  0  0  0  0  0  0  0
   -4.0994   -0.1121    2.1439 C   0  0  0  0  0  0  0  0  0  0  0  0
   -3.2500    0.1463    3.3700 C   0  0  0  0  0  0  0  0  0  0  0  0
   -2.2565    0.8293   -1.0850 O   0  0  0  0  0  0  0  0  0  0  0  0
   -3.2727    0.3648   -2.0082 C   0  0  0  0  0  0  0  0  0  0  0  0
   -2.7589   -0.7783   -2.8618 C   0  0  0  0  0  0  0  0  0  0  0  0
    5.4756   -0.4575   -2.5047 H   0  0  0  0  0  0  0  0  0  0  0  0
    5.7366   -1.4464   -1.0624 H   0  0  0  0  0  0  0  0  0  0  0  0
    5.3935   -2.2229   -2.6173 H   0  0  0  0  0  0  0  0  0  0  0  0
    3.3682   -2.2270   -1.1574 H   0  0  0  0  0  0  0  0  0  0  0  0
    3.1002   -1.2300   -2.6130 H   0  0  0  0  0  0  0  0  0  0  0  0
    4.2011    1.5669    0.8500 H   0  0  0  0  0  0  0  0  0  0  0  0
    3.1229    2.7831    1.6020 H   0  0  0  0  0  0  0  0  0  0  0  0
    3.1714   -0.2234    2.2058 H   0  0  0  0  0  0  0  0  0  0  0  0
    3.7090    1.0744    3.2843 H   0  0  0  0  0  0  0  0  0  0  0  0
    1.9927    0.9227    2.8656 H   0  0  0  0  0  0  0  0  0  0  0  0
   -0.0727   -2.9390   -0.5076 H   0  0  0  0  0  0  0  0  0  0  0  0
   -0.2080   -1.3067   -1.2648 H   0  0  0  0  0  0  0  0  0  0  0  0
   -5.0959    0.3206    2.2498 H   0  0  0  0  0  0  0  0  0  0  0  0
   -4.1769   -1.1847    1.9462 H   0  0  0  0  0  0  0  0  0  0  0  0
   -3.7281   -0.2942    4.2389 H   0  0  0  0  0  0  0  0  0  0  0  0
   -2.2632   -0.2973    3.2434 H   0  0  0  0  0  0  0  0  0  0  0  0
   -3.1259    1.2153    3.5274 H   0  0  0  0  0  0  0  0  0  0  0  0
   -4.1626    0.0816   -1.4431 H   0  0  0  0  0  0  0  0  0  0  0  0
   -3.4859    1.2440   -2.6184 H   0  0  0  0  0  0  0  0  0  0  0  0
   -2.6522   -1.6868   -2.2742 H   0  0  0  0  0  0  0  0  0  0  0  0
   -3.4640   -0.9603   -3.6665 H   0  0  0  0  0  0  0  0  0  0  0  0
   -1.7941   -0.5107   -3.2885 H   0  0  0  0  0  0  0  0  0  0  0  0
  1  2  1  0  0  0  0
  2  3  1  0  0  0  0
  3  4  2  0  0  0  0
  4  5  2  0  0  0  0
  4  6  2  0  0  0  0
  6  7  1  0  0  0  0
  7  8  1  0  0  0  0
  4  9  1  0  0  0  0
  9 10  1  0  0  0  0
 10 11  1  0  0  0  0
 11 12  1  0  0  0  0
 12 13  2  0  0  0  0
 12 14  2  0  0  0  0
 14 15  1  0  0  0  0
 15 16  1  0  0  0  0
 12 17  2  0  0  0  0
 17 18  1  0  0  0  0
 18 19  1  0  0  0  0
  1 20  1  0  0  0  0
  1 21  1  0  0  0  0
  1 22  1  0  0  0  0
  2 23  1  0  0  0  0
  2 24  1  0  0  0  0
  7 25  1  0  0  0  0
  7 26  1  0  0  0  0
  8 27  1  0  0  0  0
  8 28  1  0  0  0  0
  8 29  1  0  0  0  0
 10 30  1  0  0  0  0
 10 31  1  0  0  0  0
 15 32  1  0  0  0  0
 15 33  1  0  0  0  0
 16 34  1  0  0  0  0
 16 35  1  0  0  0  0
 16 36  1  0  0  0  0
 18 37  1  0  0  0  0
 18 38  1  0  0  0  0
 19 39  1  0  0  0  0
 19 40  1  0  0  0  0
 19 41  1  0  0  0  0
M  END
