 xtb: 6.7.1 (edcfbbe)
          04092507313D

 38 37  0     0  0            999 V2000
    4.6292   -3.2346   -2.0180 C   0  0  0  0  0  0  0  0  0  0  0  0
    3.6321   -3.5912   -0.9268 C   0  0  0  0  0  0  0  0  0  0  0  0
    3.2733   -2.4287   -0.1545 O   0  0  0  0  0  0  0  0  0  0  0  0
    2.2920   -1.6637   -0.5906 C   0  0  0  0  0  0  0  0  0  0  0  0
    1.6394   -1.8773   -1.5872 O   0  0  0  0  0  0  0  0  0  0  0  0
    2.0872   -0.4708    0.3258 C   0  0  0  0  0  0  0  0  0  0  0  0
    0.7188    0.1476    0.0923 C   0  0  0  0  0  0  0  0  0  0  0  0
    0.5484    0.2589   -0.9872 H   0  0  0  0  0  0  0  0  0  0  0  0
    0.5262    1.5108    0.7253 C   0  0  0  0  0  0  0  0  0  0  0  0
   -0.5097    1.8298    1.2744 O   0  0  0  0  0  0  0  0  0  0  0  0
    1.5634    2.2881    0.5826 O   0  0  0  0  0  0  0  0  0  0  0  0
    1.4565    3.6430    1.0761 C   0  0  0  0  0  0  0  0  0  0  0  0
    2.7441    4.3655    0.7370 C   0  0  0  0  0  0  0  0  0  0  0  0
   -0.6023   -0.9416    0.7272 S   0  0  0  0  0  0  0  0  0  0  0  0
   -2.2629    0.1956    0.0488 P   0  0  0  0  0  0  0  0  0  0  0  0
   -1.9754    1.4296   -1.4428 S   0  0  0  0  0  0  0  0  0  0  0  0
   -3.2861   -0.9896   -0.3287 O   0  0  0  0  0  0  0  0  0  0  0  0
   -3.0574   -1.8284   -1.4626 C   0  0  0  0  0  0  0  0  0  0  0  0
   -3.0470    0.8180    1.2676 O   0  0  0  0  0  0  0  0  0  0  0  0
   -3.3849    0.0556    2.4427 C   0  0  0  0  0  0  0  0  0  0  0  0
    4.1732   -2.5541   -2.7335 H   0  0  0  0  0  0  0  0  0  0  0  0
    5.5051   -2.7599   -1.5848 H   0  0  0  0  0  0  0  0  0  0  0  0
    4.9315   -4.1383   -2.5367 H   0  0  0  0  0  0  0  0  0  0  0  0
    4.0666   -4.2767   -0.1994 H   0  0  0  0  0  0  0  0  0  0  0  0
    2.7220   -4.0174   -1.3580 H   0  0  0  0  0  0  0  0  0  0  0  0
    2.8567    0.2698    0.0968 H   0  0  0  0  0  0  0  0  0  0  0  0
    2.2095   -0.7945    1.3592 H   0  0  0  0  0  0  0  0  0  0  0  0
    0.5860    4.1082    0.6035 H   0  0  0  0  0  0  0  0  0  0  0  0
    1.2816    3.5993    2.1550 H   0  0  0  0  0  0  0  0  0  0  0  0
    2.8995    4.3643   -0.3376 H   0  0  0  0  0  0  0  0  0  0  0  0
    2.6787    5.3903    1.0866 H   0  0  0  0  0  0  0  0  0  0  0  0
    3.5859    3.8764    1.2170 H   0  0  0  0  0  0  0  0  0  0  0  0
   -2.9035   -1.2184   -2.3544 H   0  0  0  0  0  0  0  0  0  0  0  0
   -3.9535   -2.4346   -1.5650 H   0  0  0  0  0  0  0  0  0  0  0  0
   -2.1829   -2.4580   -1.2938 H   0  0  0  0  0  0  0  0  0  0  0  0
   -2.4831   -0.3780    2.8754 H   0  0  0  0  0  0  0  0  0  0  0  0
   -4.0931   -0.7294    2.1833 H   0  0  0  0  0  0  0  0  0  0  0  0
   -3.8303    0.7749    3.1248 H   0  0  0  0  0  0  0  0  0  0  0  0
  1  2  1  0  0  0  0
  2  3  1  0  0  0  0
  3  4  1  0  0  0  0
  4  5  2  0  0  0  0
  4  6  1  0  0  0  0
  6  7  1  0  0  0  0
  7  8  1  0  0  0  0
  7  9  1  0  0  0  0
  9 10  2  0  0  0  0
  9 11  4  0  0  0  0
 11 12  1  0  0  0  0
 12 13  1  0  0  0  0
  7 14  1  0  0  0  0
 14 15  1  0  0  0  0
 15 16  2  0  0  0  0
 15 17  1  0  0  0  0
 17 18  1  0  0  0  0
 15 19  2  0  0  0  0
 19 20  1  0  0  0  0
  1 21  1  0  0  0  0
  1 22  1  0  0  0  0
  1 23  1  0  0  0  0
  2 24  1  0  0  0  0
  2 25  1  0  0  0  0
  6 26  1  0  0  0  0
  6 27  1  0  0  0  0
 12 28  1  0  0  0  0
 12 29  1  0  0  0  0
 13 30  1  0  0  0  0
 13 31  1  0  0  0  0
 13 32  1  0  0  0  0
 18 33  1  0  0  0  0
 18 34  1  0  0  0  0
 18 35  1  0  0  0  0
 20 36  1  0  0  0  0
 20 37  1  0  0  0  0
 20 38  1  0  0  0  0
M  END
