 xtb: 6.7.1 (edcfbbe)
          04092505213D

 41 40  0     0  0            999 V2000
    3.0107    2.5189   -0.5246 C   0  0  0  0  0  0  0  0  0  0  0  0
    3.5459    1.5016    0.4620 C   0  0  0  0  0  0  0  0  0  0  0  0
    2.4446    0.8362    1.1387 O   0  0  0  0  0  0  0  0  0  0  0  0
    2.1228   -0.6945    0.9490 P   0  0  0  0  0  0  0  0  0  0  0  0
    0.6257   -1.2800    2.0586 S   0  0  0  0  0  0  0  0  0  0  0  0
    3.5293   -1.3618    1.2790 O   0  0  0  0  0  0  0  0  0  0  0  0
    3.6777   -2.7525    1.6187 C   0  0  0  0  0  0  0  0  0  0  0  0
    3.3044   -3.6729    0.4749 C   0  0  0  0  0  0  0  0  0  0  0  0
    1.9112   -0.9980   -1.1560 S   0  0  0  0  0  0  0  0  0  0  0  0
    0.1455   -0.6867   -1.2263 C   0  0  0  0  0  0  0  0  0  0  0  0
   -0.2246    1.0873   -0.9344 S   0  0  0  0  0  0  0  0  0  0  0  0
   -2.2612    0.7886   -0.5553 P   0  0  0  0  0  0  0  0  0  0  0  0
   -3.2146   -0.4693   -1.7248 S   0  0  0  0  0  0  0  0  0  0  0  0
   -2.9063    2.2414   -0.4951 O   0  0  0  0  0  0  0  0  0  0  0  0
   -3.4641    2.8806   -1.6584 C   0  0  0  0  0  0  0  0  0  0  0  0
   -2.3920    3.2759   -2.6528 C   0  0  0  0  0  0  0  0  0  0  0  0
   -2.1800    0.4145    0.9808 O   0  0  0  0  0  0  0  0  0  0  0  0
   -3.2904   -0.1700    1.6985 C   0  0  0  0  0  0  0  0  0  0  0  0
   -3.1565   -1.6788    1.7506 C   0  0  0  0  0  0  0  0  0  0  0  0
    2.3366    3.2065   -0.0218 H   0  0  0  0  0  0  0  0  0  0  0  0
    3.8426    3.0729   -0.9473 H   0  0  0  0  0  0  0  0  0  0  0  0
    2.4633    2.0269   -1.3255 H   0  0  0  0  0  0  0  0  0  0  0  0
    4.1171    1.9807    1.2585 H   0  0  0  0  0  0  0  0  0  0  0  0
    4.1654    0.7515   -0.0343 H   0  0  0  0  0  0  0  0  0  0  0  0
    4.7332   -2.8415    1.8798 H   0  0  0  0  0  0  0  0  0  0  0  0
    3.0583   -2.9595    2.4968 H   0  0  0  0  0  0  0  0  0  0  0  0
    3.8350   -3.3890   -0.4304 H   0  0  0  0  0  0  0  0  0  0  0  0
    3.5619   -4.6933    0.7402 H   0  0  0  0  0  0  0  0  0  0  0  0
    2.2333   -3.6190    0.2864 H   0  0  0  0  0  0  0  0  0  0  0  0
   -0.3518   -1.2718   -0.4495 H   0  0  0  0  0  0  0  0  0  0  0  0
   -0.2001   -0.9695   -2.2183 H   0  0  0  0  0  0  0  0  0  0  0  0
   -4.1828    2.1942   -2.1177 H   0  0  0  0  0  0  0  0  0  0  0  0
   -3.9845    3.7502   -1.2549 H   0  0  0  0  0  0  0  0  0  0  0  0
   -1.6257    3.8728   -2.1646 H   0  0  0  0  0  0  0  0  0  0  0  0
   -1.9273    2.3842   -3.0720 H   0  0  0  0  0  0  0  0  0  0  0  0
   -2.8414    3.8503   -3.4564 H   0  0  0  0  0  0  0  0  0  0  0  0
   -3.2297    0.2683    2.6957 H   0  0  0  0  0  0  0  0  0  0  0  0
   -4.2265    0.1283    1.2180 H   0  0  0  0  0  0  0  0  0  0  0  0
   -3.9366   -2.0870    2.3846 H   0  0  0  0  0  0  0  0  0  0  0  0
   -3.2515   -2.1017    0.7524 H   0  0  0  0  0  0  0  0  0  0  0  0
   -2.1835   -1.9479    2.1564 H   0  0  0  0  0  0  0  0  0  0  0  0
  1  2  1  0  0  0  0
  2  3  1  0  0  0  0
  3  4  2  0  0  0  0
  4  5  2  0  0  0  0
  4  6  2  0  0  0  0
  6  7  1  0  0  0  0
  7  8  1  0  0  0  0
  4  9  1  0  0  0  0
  9 10  1  0  0  0  0
 10 11  1  0  0  0  0
 11 12  1  0  0  0  0
 12 13  2  0  0  0  0
 12 14  2  0  0  0  0
 14 15  1  0  0  0  0
 15 16  1  0  0  0  0
 12 17  2  0  0  0  0
 17 18  1  0  0  0  0
 18 19  1  0  0  0  0
  1 20  1  0  0  0  0
  1 21  1  0  0  0  0
  1 22  1  0  0  0  0
  2 23  1  0  0  0  0
  2 24  1  0  0  0  0
  7 25  1  0  0  0  0
  7 26  1  0  0  0  0
  8 27  1  0  0  0  0
  8 28  1  0  0  0  0
  8 29  1  0  0  0  0
 10 30  1  0  0  0  0
 10 31  1  0  0  0  0
 15 32  1  0  0  0  0
 15 33  1  0  0  0  0
 16 34  1  0  0  0  0
 16 35  1  0  0  0  0
 16 36  1  0  0  0  0
 18 37  1  0  0  0  0
 18 38  1  0  0  0  0
 19 39  1  0  0  0  0
 19 40  1  0  0  0  0
 19 41  1  0  0  0  0
M  END
