 xtb: 6.7.1 (edcfbbe)
          04092507313D

 38 37  0     0  0            999 V2000
    4.8436   -3.0066   -0.8220 C   0  0  0  0  0  0  0  0  0  0  0  0
    4.4334   -1.5447   -0.7489 C   0  0  0  0  0  0  0  0  0  0  0  0
    3.1423   -1.3485   -1.3606 O   0  0  0  0  0  0  0  0  0  0  0  0
    2.0647   -1.4130   -0.6155 C   0  0  0  0  0  0  0  0  0  0  0  0
    2.0542   -1.5968    0.5841 O   0  0  0  0  0  0  0  0  0  0  0  0
    0.8065   -1.1597   -1.4271 C   0  0  0  0  0  0  0  0  0  0  0  0
    0.4967    0.3457   -1.3918 C   0  0  0  0  0  0  0  0  0  0  0  0
    1.0892    0.8913   -2.1264 H   0  0  0  0  0  0  0  0  0  0  0  0
    0.7462    0.9050   -0.0090 C   0  0  0  0  0  0  0  0  0  0  0  0
   -0.0583    0.7399    0.8907 O   0  0  0  0  0  0  0  0  0  0  0  0
    1.8621    1.5621    0.0857 O   0  0  0  0  0  0  0  0  0  0  0  0
    2.2403    2.1286    1.3646 C   0  0  0  0  0  0  0  0  0  0  0  0
    3.2676    1.2418    2.0467 C   0  0  0  0  0  0  0  0  0  0  0  0
   -1.2590    0.6702   -1.7672 S   0  0  0  0  0  0  0  0  0  0  0  0
   -2.2668    0.3481    0.0812 P   0  0  0  0  0  0  0  0  0  0  0  0
   -2.6884    1.7331    1.4182 S   0  0  0  0  0  0  0  0  0  0  0  0
   -3.5778    0.0281   -0.7992 O   0  0  0  0  0  0  0  0  0  0  0  0
   -4.8743   -0.1256   -0.2206 C   0  0  0  0  0  0  0  0  0  0  0  0
   -1.9846   -1.1279    0.6457 O   0  0  0  0  0  0  0  0  0  0  0  0
   -1.3719   -1.4311    1.8983 C   0  0  0  0  0  0  0  0  0  0  0  0
    4.8332   -3.3474   -1.8534 H   0  0  0  0  0  0  0  0  0  0  0  0
    5.8443   -3.1184   -0.4181 H   0  0  0  0  0  0  0  0  0  0  0  0
    4.1583   -3.6185   -0.2397 H   0  0  0  0  0  0  0  0  0  0  0  0
    5.1089   -0.9132   -1.3261 H   0  0  0  0  0  0  0  0  0  0  0  0
    4.3845   -1.2067    0.2895 H   0  0  0  0  0  0  0  0  0  0  0  0
   -0.0155   -1.7136   -0.9712 H   0  0  0  0  0  0  0  0  0  0  0  0
    0.9454   -1.4768   -2.4583 H   0  0  0  0  0  0  0  0  0  0  0  0
    2.6561    3.1064    1.1193 H   0  0  0  0  0  0  0  0  0  0  0  0
    1.3407    2.2385    1.9754 H   0  0  0  0  0  0  0  0  0  0  0  0
    3.5067    1.6577    3.0196 H   0  0  0  0  0  0  0  0  0  0  0  0
    2.8659    0.2388    2.1802 H   0  0  0  0  0  0  0  0  0  0  0  0
    4.1725    1.1870    1.4481 H   0  0  0  0  0  0  0  0  0  0  0  0
   -5.0282    0.6198    0.5632 H   0  0  0  0  0  0  0  0  0  0  0  0
   -4.9772   -1.1269    0.1966 H   0  0  0  0  0  0  0  0  0  0  0  0
   -5.5819    0.0263   -1.0320 H   0  0  0  0  0  0  0  0  0  0  0  0
   -1.8766   -2.3196    2.2711 H   0  0  0  0  0  0  0  0  0  0  0  0
   -1.5007   -0.5982    2.5910 H   0  0  0  0  0  0  0  0  0  0  0  0
   -0.3084   -1.6247    1.7537 H   0  0  0  0  0  0  0  0  0  0  0  0
  1  2  1  0  0  0  0
  2  3  1  0  0  0  0
  3  4  4  0  0  0  0
  4  5  2  0  0  0  0
  4  6  1  0  0  0  0
  6  7  1  0  0  0  0
  7  8  1  0  0  0  0
  7  9  1  0  0  0  0
  9 10  2  0  0  0  0
  9 11  4  0  0  0  0
 11 12  1  0  0  0  0
 12 13  1  0  0  0  0
  7 14  1  0  0  0  0
 14 15  1  0  0  0  0
 15 16  2  0  0  0  0
 15 17  1  0  0  0  0
 17 18  1  0  0  0  0
 15 19  1  0  0  0  0
 19 20  1  0  0  0  0
  1 21  1  0  0  0  0
  1 22  1  0  0  0  0
  1 23  1  0  0  0  0
  2 24  1  0  0  0  0
  2 25  1  0  0  0  0
  6 26  1  0  0  0  0
  6 27  1  0  0  0  0
 12 28  1  0  0  0  0
 12 29  1  0  0  0  0
 13 30  1  0  0  0  0
 13 31  1  0  0  0  0
 13 32  1  0  0  0  0
 18 33  1  0  0  0  0
 18 34  1  0  0  0  0
 18 35  1  0  0  0  0
 20 36  1  0  0  0  0
 20 37  1  0  0  0  0
 20 38  1  0  0  0  0
M  END
