 xtb: 6.7.1 (edcfbbe)
          04032519413D

 19 19  0     0  0            999 V2000
   -2.5097   -0.7651    0.0018 C   0  0  0  0  0  0  0  0  0  0  0  0
   -1.2165   -0.0042   -0.0008 C   0  0  0  0  0  0  0  0  0  0  0  0
   -1.2174    1.3831   -0.0006 C   0  0  0  0  0  0  0  0  0  0  0  0
   -0.0338    2.0964   -0.0002 C   0  0  0  0  0  0  0  0  0  0  0  0
    1.1720    1.4189    0.0003 C   0  0  0  0  0  0  0  0  0  0  0  0
    1.2141    0.0329    0.0002 C   0  0  0  0  0  0  0  0  0  0  0  0
    0.0084   -0.6763   -0.0005 C   0  0  0  0  0  0  0  0  0  0  0  0
   -0.0156   -2.0443   -0.0011 O   0  0  0  0  0  0  0  0  0  0  0  0
    2.5304   -0.6943    0.0008 C   0  0  0  0  0  0  0  0  0  0  0  0
   -3.1247   -0.4656   -0.8449 H   0  0  0  0  0  0  0  0  0  0  0  0
   -2.3206   -1.8327   -0.0572 H   0  0  0  0  0  0  0  0  0  0  0  0
   -3.0662   -0.5562    0.9140 H   0  0  0  0  0  0  0  0  0  0  0  0
   -2.1642    1.9028   -0.0012 H   0  0  0  0  0  0  0  0  0  0  0  0
   -0.0492    3.1756   -0.0004 H   0  0  0  0  0  0  0  0  0  0  0  0
    2.0993    1.9729    0.0009 H   0  0  0  0  0  0  0  0  0  0  0  0
    0.8877   -2.3911   -0.0094 H   0  0  0  0  0  0  0  0  0  0  0  0
    2.6273   -1.3279    0.8827 H   0  0  0  0  0  0  0  0  0  0  0  0
    2.6368   -1.3119   -0.8913 H   0  0  0  0  0  0  0  0  0  0  0  0
    3.3474    0.0216    0.0116 H   0  0  0  0  0  0  0  0  0  0  0  0
  1  2  1  0  0  0  0
  2  3  4  0  0  0  0
  3  4  4  0  0  0  0
  4  5  4  0  0  0  0
  5  6  4  0  0  0  0
  2  7  4  0  0  0  0
  6  7  4  0  0  0  0
  7  8  1  0  0  0  0
  6  9  1  0  0  0  0
  1 10  1  0  0  0  0
  1 11  1  0  0  0  0
  1 12  1  0  0  0  0
  3 13  1  0  0  0  0
  4 14  1  0  0  0  0
  5 15  1  0  0  0  0
  8 16  1  0  0  0  0
  9 17  1  0  0  0  0
  9 18  1  0  0  0  0
  9 19  1  0  0  0  0
M  END
