 xtb: 6.7.1 (edcfbbe)
          04032519553D

  9  8  0     0  0            999 V2000
    1.2628   -0.2903    0.0031 C   0  0  0  0  0  0  0  0  0  0  0  0
    0.0065    0.5662   -0.0501 C   0  0  0  0  0  0  0  0  0  0  0  0
   -1.1259   -0.2801    0.0441 O   0  0  0  0  0  0  0  0  0  0  0  0
    1.2898   -0.8453    0.9367 H   0  0  0  0  0  0  0  0  0  0  0  0
    1.2586   -1.0001   -0.8195 H   0  0  0  0  0  0  0  0  0  0  0  0
    2.1435    0.3402   -0.0681 H   0  0  0  0  0  0  0  0  0  0  0  0
   -0.0211    1.1267   -0.9944 H   0  0  0  0  0  0  0  0  0  0  0  0
    0.0101    1.2828    0.7824 H   0  0  0  0  0  0  0  0  0  0  0  0
   -1.9309    0.2528    0.0116 H   0  0  0  0  0  0  0  0  0  0  0  0
  1  2  1  0  0  0  0
  2  3  1  0  0  0  0
  1  4  1  0  0  0  0
  1  5  1  0  0  0  0
  1  6  1  0  0  0  0
  2  7  1  0  0  0  0
  2  8  1  0  0  0  0
  3  9  1  0  0  0  0
M  END
