 xtb: 6.7.1 (edcfbbe)
          04032520273D

 21 21  0     0  0            999 V2000
   -2.4877    0.8017   -0.0533 C   0  0  0  0  0  0  0  0  0  0  0  0
   -1.2042    0.0284   -0.0102 C   0  0  0  0  0  0  0  0  0  0  0  0
   -1.2386   -1.3580    0.0365 C   0  0  0  0  0  0  0  0  0  0  0  0
   -0.0676   -2.0907    0.0767 C   0  0  0  0  0  0  0  0  0  0  0  0
    1.1475   -1.4332    0.0705 C   0  0  0  0  0  0  0  0  0  0  0  0
    1.2118   -0.0460    0.0242 C   0  0  0  0  0  0  0  0  0  0  0  0
    0.0269    0.6933   -0.0170 C   0  0  0  0  0  0  0  0  0  0  0  0
    0.0352    2.1934   -0.0667 C   0  0  0  0  0  0  0  0  0  0  0  0
    2.5590    0.6187    0.0202 C   0  0  0  0  0  0  0  0  0  0  0  0
   -2.5579    1.4793    0.7964 H   0  0  0  0  0  0  0  0  0  0  0  0
   -2.5453    1.4010   -0.9610 H   0  0  0  0  0  0  0  0  0  0  0  0
   -3.3399    0.1277   -0.0299 H   0  0  0  0  0  0  0  0  0  0  0  0
   -2.1919   -1.8675    0.0416 H   0  0  0  0  0  0  0  0  0  0  0  0
   -0.1016   -3.1698    0.1131 H   0  0  0  0  0  0  0  0  0  0  0  0
    2.0639   -2.0054    0.1023 H   0  0  0  0  0  0  0  0  0  0  0  0
    1.0419    2.5935   -0.0880 H   0  0  0  0  0  0  0  0  0  0  0  0
   -0.4929    2.5427   -0.9529 H   0  0  0  0  0  0  0  0  0  0  0  0
   -0.4783    2.5999    0.8039 H   0  0  0  0  0  0  0  0  0  0  0  0
    3.3459   -0.1302    0.0589 H   0  0  0  0  0  0  0  0  0  0  0  0
    2.6963    1.2110   -0.8832 H   0  0  0  0  0  0  0  0  0  0  0  0
    2.6699    1.2751    0.8818 H   0  0  0  0  0  0  0  0  0  0  0  0
  1  2  1  0  0  0  0
  2  3  4  0  0  0  0
  3  4  4  0  0  0  0
  4  5  4  0  0  0  0
  5  6  4  0  0  0  0
  2  7  4  0  0  0  0
  6  7  4  0  0  0  0
  7  8  1  0  0  0  0
  6  9  1  0  0  0  0
  1 10  1  0  0  0  0
  1 11  1  0  0  0  0
  1 12  1  0  0  0  0
  3 13  1  0  0  0  0
  4 14  1  0  0  0  0
  5 15  1  0  0  0  0
  8 16  1  0  0  0  0
  8 17  1  0  0  0  0
  8 18  1  0  0  0  0
  9 19  1  0  0  0  0
  9 20  1  0  0  0  0
  9 21  1  0  0  0  0
M  END
