 xtb: 6.7.1 (edcfbbe)
          04092505203D

 41 40  0     0  0            999 V2000
    1.4905    0.2690   -3.6044 C   0  0  0  0  0  0  0  0  0  0  0  0
    2.3655    0.1847   -2.3717 C   0  0  0  0  0  0  0  0  0  0  0  0
    1.6231   -0.4942   -1.3296 O   0  0  0  0  0  0  0  0  0  0  0  0
    2.1220   -0.4043    0.1726 P   0  0  0  0  0  0  0  0  0  0  0  0
    2.5585    1.3735    0.8853 S   0  0  0  0  0  0  0  0  0  0  0  0
    3.3830   -1.3771    0.0996 O   0  0  0  0  0  0  0  0  0  0  0  0
    4.3985   -1.4036    1.1168 C   0  0  0  0  0  0  0  0  0  0  0  0
    3.8698   -1.9199    2.4393 C   0  0  0  0  0  0  0  0  0  0  0  0
    0.6284   -1.5281    1.1436 S   0  0  0  0  0  0  0  0  0  0  0  0
   -0.1146   -0.2279    2.1925 C   0  0  0  0  0  0  0  0  0  0  0  0
   -1.9173   -0.1584    2.0560 S   0  0  0  0  0  0  0  0  0  0  0  0
   -2.0689    0.3065    0.0053 P   0  0  0  0  0  0  0  0  0  0  0  0
   -0.7480    1.5843   -0.6969 S   0  0  0  0  0  0  0  0  0  0  0  0
   -3.5967    0.7126   -0.1430 O   0  0  0  0  0  0  0  0  0  0  0  0
   -4.1358    1.9432    0.3799 C   0  0  0  0  0  0  0  0  0  0  0  0
   -4.1264    3.0328   -0.6752 C   0  0  0  0  0  0  0  0  0  0  0  0
   -2.0784   -1.1352   -0.6388 O   0  0  0  0  0  0  0  0  0  0  0  0
   -1.6929   -1.3978   -2.0030 C   0  0  0  0  0  0  0  0  0  0  0  0
   -2.6333   -0.7319   -2.9845 C   0  0  0  0  0  0  0  0  0  0  0  0
    0.5947    0.8435   -3.3818 H   0  0  0  0  0  0  0  0  0  0  0  0
    2.0433    0.7662   -4.3948 H   0  0  0  0  0  0  0  0  0  0  0  0
    1.2073   -0.7270   -3.9326 H   0  0  0  0  0  0  0  0  0  0  0  0
    2.6329    1.1831   -2.0081 H   0  0  0  0  0  0  0  0  0  0  0  0
    3.2776   -0.3871   -2.5604 H   0  0  0  0  0  0  0  0  0  0  0  0
    5.1651   -2.0602    0.7032 H   0  0  0  0  0  0  0  0  0  0  0  0
    4.7954   -0.3900    1.2321 H   0  0  0  0  0  0  0  0  0  0  0  0
    3.1574   -1.2078    2.8545 H   0  0  0  0  0  0  0  0  0  0  0  0
    3.3725   -2.8765    2.3011 H   0  0  0  0  0  0  0  0  0  0  0  0
    4.6949   -2.0373    3.1345 H   0  0  0  0  0  0  0  0  0  0  0  0
    0.3234    0.7348    1.9131 H   0  0  0  0  0  0  0  0  0  0  0  0
    0.0900   -0.4631    3.2339 H   0  0  0  0  0  0  0  0  0  0  0  0
   -5.1539    1.6884    0.6797 H   0  0  0  0  0  0  0  0  0  0  0  0
   -3.5623    2.2439    1.2615 H   0  0  0  0  0  0  0  0  0  0  0  0
   -3.1047    3.2654   -0.9679 H   0  0  0  0  0  0  0  0  0  0  0  0
   -4.6781    2.7081   -1.5530 H   0  0  0  0  0  0  0  0  0  0  0  0
   -4.5895    3.9267   -0.2700 H   0  0  0  0  0  0  0  0  0  0  0  0
   -0.6650   -1.0512   -2.1443 H   0  0  0  0  0  0  0  0  0  0  0  0
   -1.7275   -2.4858   -2.0749 H   0  0  0  0  0  0  0  0  0  0  0  0
   -2.5715    0.3505   -2.8731 H   0  0  0  0  0  0  0  0  0  0  0  0
   -2.3523   -1.0012   -3.9978 H   0  0  0  0  0  0  0  0  0  0  0  0
   -3.6564   -1.0449   -2.7937 H   0  0  0  0  0  0  0  0  0  0  0  0
  1  2  1  0  0  0  0
  2  3  1  0  0  0  0
  3  4  2  0  0  0  0
  4  5  2  0  0  0  0
  4  6  2  0  0  0  0
  6  7  1  0  0  0  0
  7  8  1  0  0  0  0
  4  9  1  0  0  0  0
  9 10  1  0  0  0  0
 10 11  1  0  0  0  0
 11 12  1  0  0  0  0
 12 13  2  0  0  0  0
 12 14  2  0  0  0  0
 14 15  1  0  0  0  0
 15 16  1  0  0  0  0
 12 17  2  0  0  0  0
 17 18  1  0  0  0  0
 18 19  1  0  0  0  0
  1 20  1  0  0  0  0
  1 21  1  0  0  0  0
  1 22  1  0  0  0  0
  2 23  1  0  0  0  0
  2 24  1  0  0  0  0
  7 25  1  0  0  0  0
  7 26  1  0  0  0  0
  8 27  1  0  0  0  0
  8 28  1  0  0  0  0
  8 29  1  0  0  0  0
 10 30  1  0  0  0  0
 10 31  1  0  0  0  0
 15 32  1  0  0  0  0
 15 33  1  0  0  0  0
 16 34  1  0  0  0  0
 16 35  1  0  0  0  0
 16 36  1  0  0  0  0
 18 37  1  0  0  0  0
 18 38  1  0  0  0  0
 19 39  1  0  0  0  0
 19 40  1  0  0  0  0
 19 41  1  0  0  0  0
M  END
