 xtb: 6.7.1 (edcfbbe)
          04092505213D

 41 40  0     0  0            999 V2000
    2.0027   -1.5574   -2.6500 C   0  0  0  0  0  0  0  0  0  0  0  0
    2.6684   -0.2710   -2.2044 C   0  0  0  0  0  0  0  0  0  0  0  0
    3.2077   -0.4155   -0.8771 O   0  0  0  0  0  0  0  0  0  0  0  0
    2.5226    0.1213    0.4481 P   0  0  0  0  0  0  0  0  0  0  0  0
    2.1525    2.0446    0.5487 S   0  0  0  0  0  0  0  0  0  0  0  0
    3.6022   -0.2625    1.5328 O   0  0  0  0  0  0  0  0  0  0  0  0
    4.4672   -1.4255    1.4986 C   0  0  0  0  0  0  0  0  0  0  0  0
    3.6988   -2.7294    1.5356 C   0  0  0  0  0  0  0  0  0  0  0  0
    0.8380   -1.1312    0.7991 S   0  0  0  0  0  0  0  0  0  0  0  0
   -0.2166    0.0576    1.6923 C   0  0  0  0  0  0  0  0  0  0  0  0
   -1.9679   -0.2649    1.4319 S   0  0  0  0  0  0  0  0  0  0  0  0
   -2.2295    0.6245   -0.4955 P   0  0  0  0  0  0  0  0  0  0  0  0
   -0.6453    0.9201   -1.6065 S   0  0  0  0  0  0  0  0  0  0  0  0
   -2.9189    2.0221   -0.2559 O   0  0  0  0  0  0  0  0  0  0  0  0
   -3.9118    2.3488    0.7470 C   0  0  0  0  0  0  0  0  0  0  0  0
   -5.0949    1.4049    0.7573 C   0  0  0  0  0  0  0  0  0  0  0  0
   -3.3954   -0.2283   -1.1506 O   0  0  0  0  0  0  0  0  0  0  0  0
   -3.4368   -1.6658   -1.2378 C   0  0  0  0  0  0  0  0  0  0  0  0
   -2.1412   -2.2681   -1.7389 C   0  0  0  0  0  0  0  0  0  0  0  0
    1.6757   -1.4435   -3.6781 H   0  0  0  0  0  0  0  0  0  0  0  0
    2.7021   -2.3855   -2.5806 H   0  0  0  0  0  0  0  0  0  0  0  0
    1.1349   -1.7663   -2.0296 H   0  0  0  0  0  0  0  0  0  0  0  0
    1.9635    0.5652   -2.2253 H   0  0  0  0  0  0  0  0  0  0  0  0
    3.5312   -0.0318   -2.8290 H   0  0  0  0  0  0  0  0  0  0  0  0
    5.0864   -1.3606    0.6023 H   0  0  0  0  0  0  0  0  0  0  0  0
    5.0859   -1.2968    2.3881 H   0  0  0  0  0  0  0  0  0  0  0  0
    3.0931   -2.8385    0.6379 H   0  0  0  0  0  0  0  0  0  0  0  0
    4.4053   -3.5520    1.5879 H   0  0  0  0  0  0  0  0  0  0  0  0
    3.0452   -2.7632    2.4034 H   0  0  0  0  0  0  0  0  0  0  0  0
    0.0417    1.0628    1.3472 H   0  0  0  0  0  0  0  0  0  0  0  0
   -0.0450   -0.0487    2.7607 H   0  0  0  0  0  0  0  0  0  0  0  0
   -3.4148    2.3580    1.7208 H   0  0  0  0  0  0  0  0  0  0  0  0
   -4.2088    3.3636    0.4770 H   0  0  0  0  0  0  0  0  0  0  0  0
   -5.5224    1.3256   -0.2387 H   0  0  0  0  0  0  0  0  0  0  0  0
   -4.7886    0.4165    1.0944 H   0  0  0  0  0  0  0  0  0  0  0  0
   -5.8448    1.7925    1.4402 H   0  0  0  0  0  0  0  0  0  0  0  0
   -3.6847   -2.0556   -0.2467 H   0  0  0  0  0  0  0  0  0  0  0  0
   -4.2593   -1.8567   -1.9292 H   0  0  0  0  0  0  0  0  0  0  0  0
   -1.8526   -1.8133   -2.6839 H   0  0  0  0  0  0  0  0  0  0  0  0
   -1.3432   -2.1008   -1.0154 H   0  0  0  0  0  0  0  0  0  0  0  0
   -2.2698   -3.3367   -1.8772 H   0  0  0  0  0  0  0  0  0  0  0  0
  1  2  1  0  0  0  0
  2  3  1  0  0  0  0
  3  4  2  0  0  0  0
  4  5  2  0  0  0  0
  4  6  2  0  0  0  0
  6  7  1  0  0  0  0
  7  8  1  0  0  0  0
  4  9  1  0  0  0  0
  9 10  1  0  0  0  0
 10 11  1  0  0  0  0
 11 12  1  0  0  0  0
 12 13  2  0  0  0  0
 12 14  2  0  0  0  0
 14 15  1  0  0  0  0
 15 16  1  0  0  0  0
 12 17  2  0  0  0  0
 17 18  1  0  0  0  0
 18 19  1  0  0  0  0
  1 20  1  0  0  0  0
  1 21  1  0  0  0  0
  1 22  1  0  0  0  0
  2 23  1  0  0  0  0
  2 24  1  0  0  0  0
  7 25  1  0  0  0  0
  7 26  1  0  0  0  0
  8 27  1  0  0  0  0
  8 28  1  0  0  0  0
  8 29  1  0  0  0  0
 10 30  1  0  0  0  0
 10 31  1  0  0  0  0
 15 32  1  0  0  0  0
 15 33  1  0  0  0  0
 16 34  1  0  0  0  0
 16 35  1  0  0  0  0
 16 36  1  0  0  0  0
 18 37  1  0  0  0  0
 18 38  1  0  0  0  0
 19 39  1  0  0  0  0
 19 40  1  0  0  0  0
 19 41  1  0  0  0  0
M  END
