  24
 
 C          0.7148708256       -1.6635863286       -0.9061858585
 C          0.3936163183       -0.9615387508        0.4129397785
 H          0.9258307982       -1.5039812685        1.2049934706
 C         -1.1051811616       -1.0278393221        0.7332089131
 C         -1.9361442130       -0.1483288280       -0.1965620484
 C         -1.4576447195        1.2979580038       -0.1285763247
 C          0.0264738673        1.3864401928       -0.4697955311
 C          0.8568760881        0.5060232523        0.4662348407
 H          0.6776844507        0.8542037695        1.4916524320
 C          2.3487928390        0.6603164657        0.1769035911
 H          0.2873195181       -1.1395036736       -1.7559300520
 H          1.7895633061       -1.7343600015       -1.0514170333
 H          0.3099082189       -2.6734894727       -0.8913806607
 H         -1.4476757431       -2.0630065787        0.6676183922
 H         -1.2594151420       -0.6934514244        1.7627349409
 H         -1.8561214947       -0.5124724434       -1.2220195192
 H         -2.9880035928       -0.2052612593        0.0922495909
 H         -2.0363837735        1.9167918867       -0.8177611726
 H         -1.6183112436        1.6833498398        0.8816241558
 H          0.1841771154        1.0786728104       -1.5049311291
 H          0.3634125331        2.4219194036       -0.3815019367
 H          2.9304593485       -0.0159386705        0.7995667210
 H          2.6660672822        1.6790437529        0.3878185984
 H          2.5665587652        0.4480767905       -0.8663861345
          24
        -25.31679240
 C          0.7171848212        1.6685918344        0.8977557331
 C          0.3957249143        0.9614668303       -0.4185565980
 H          0.9262433863        1.5019032757       -1.2131889623
 C         -1.1032725018        1.0247797444       -0.7378760580
 C         -1.9318711554        0.1482220065        0.1967950748
 C         -1.4534375556       -1.2982368577        0.1304115333
 C          0.0313267823       -1.3856884046        0.4693594306
 C          0.8614882120       -0.5052327981       -0.4668689702
 H          0.6868202181       -0.8565467809       -1.4919690693
 C          2.3523835411       -0.6546877544       -0.1707014732
 H          0.2921794923        2.6702541924        0.8881814532
 H          0.3092791643        1.1355355686        1.7510560354
 H          1.7915618565        1.7606787192        1.0312137426
 H         -1.4464708001        2.0598096152       -0.6756285374
 H         -1.2584616209        0.6859167012       -1.7656280796
 H         -1.8480305331        0.5149225229        1.2208486196
 H         -2.9844422813        0.2045413605       -0.0892127988
 H         -2.0303777871       -1.9156877165        0.8221552421
 H         -1.6159932250       -1.6852944206       -0.8787532812
 H          0.1898386440       -1.0778908649        1.5043244893
 H          0.3686767522       -2.4209598946        0.3803132279
 H          2.6739615487       -1.6731381598       -0.3772771258
 H          2.5644518296       -0.4395667445        0.8732431927
 H          2.9355907237        0.0215563895       -0.7917900391
