 xtb: 6.7.1 (edcfbbe)
          04092505203D

 41 40  0     0  0            999 V2000
    3.5676    2.2183   -0.8077 C   0  0  0  0  0  0  0  0  0  0  0  0
    2.0845    2.0989   -0.5299 C   0  0  0  0  0  0  0  0  0  0  0  0
    1.6358    0.7295   -0.5653 O   0  0  0  0  0  0  0  0  0  0  0  0
    2.1219   -0.3617    0.4710 P   0  0  0  0  0  0  0  0  0  0  0  0
    2.4804    0.2668    2.2954 S   0  0  0  0  0  0  0  0  0  0  0  0
    3.3671   -1.0015   -0.2787 O   0  0  0  0  0  0  0  0  0  0  0  0
    4.3325   -1.8265    0.3973 C   0  0  0  0  0  0  0  0  0  0  0  0
    3.7475   -3.1570    0.8250 C   0  0  0  0  0  0  0  0  0  0  0  0
    0.5841   -1.7853    0.2301 S   0  0  0  0  0  0  0  0  0  0  0  0
   -0.5186   -1.1105    1.5053 C   0  0  0  0  0  0  0  0  0  0  0  0
   -1.1259    0.5612    1.1497 S   0  0  0  0  0  0  0  0  0  0  0  0
   -2.0750    0.2156   -0.7464 P   0  0  0  0  0  0  0  0  0  0  0  0
   -1.0006    0.1639   -2.3780 S   0  0  0  0  0  0  0  0  0  0  0  0
   -3.2011    1.3411   -0.7517 O   0  0  0  0  0  0  0  0  0  0  0  0
   -2.9567    2.6593   -1.2688 C   0  0  0  0  0  0  0  0  0  0  0  0
   -2.0049    3.4418   -0.3875 C   0  0  0  0  0  0  0  0  0  0  0  0
   -2.8878   -1.1157   -0.5213 O   0  0  0  0  0  0  0  0  0  0  0  0
   -3.9608   -1.2527    0.4479 C   0  0  0  0  0  0  0  0  0  0  0  0
   -5.3067   -1.0315   -0.2112 C   0  0  0  0  0  0  0  0  0  0  0  0
    3.8379    3.2677   -0.8701 H   0  0  0  0  0  0  0  0  0  0  0  0
    4.1339    1.7530   -0.0014 H   0  0  0  0  0  0  0  0  0  0  0  0
    3.8131    1.7224   -1.7434 H   0  0  0  0  0  0  0  0  0  0  0  0
    1.4879    2.5830   -1.3054 H   0  0  0  0  0  0  0  0  0  0  0  0
    1.8365    2.5160    0.4521 H   0  0  0  0  0  0  0  0  0  0  0  0
    5.1287   -1.9527   -0.3374 H   0  0  0  0  0  0  0  0  0  0  0  0
    4.7083   -1.2759    1.2659 H   0  0  0  0  0  0  0  0  0  0  0  0
    4.5384   -3.7875    1.2187 H   0  0  0  0  0  0  0  0  0  0  0  0
    2.9985   -3.0025    1.6008 H   0  0  0  0  0  0  0  0  0  0  0  0
    3.2770   -3.6521   -0.0212 H   0  0  0  0  0  0  0  0  0  0  0  0
    0.0255   -1.0249    2.4467 H   0  0  0  0  0  0  0  0  0  0  0  0
   -1.3482   -1.8071    1.5928 H   0  0  0  0  0  0  0  0  0  0  0  0
   -2.5550    2.5632   -2.2827 H   0  0  0  0  0  0  0  0  0  0  0  0
   -3.9457    3.1184   -1.3016 H   0  0  0  0  0  0  0  0  0  0  0  0
   -1.9115    4.4551   -0.7643 H   0  0  0  0  0  0  0  0  0  0  0  0
   -2.3684    3.4671    0.6367 H   0  0  0  0  0  0  0  0  0  0  0  0
   -1.0229    2.9692   -0.3960 H   0  0  0  0  0  0  0  0  0  0  0  0
   -3.8674   -2.2770    0.8148 H   0  0  0  0  0  0  0  0  0  0  0  0
   -3.8008   -0.5426    1.2633 H   0  0  0  0  0  0  0  0  0  0  0  0
   -6.0917   -1.2241    0.5135 H   0  0  0  0  0  0  0  0  0  0  0  0
   -5.3892   -0.0083   -0.5670 H   0  0  0  0  0  0  0  0  0  0  0  0
   -5.4226   -1.7066   -1.0546 H   0  0  0  0  0  0  0  0  0  0  0  0
  1  2  1  0  0  0  0
  2  3  1  0  0  0  0
  3  4  2  0  0  0  0
  4  5  2  0  0  0  0
  4  6  2  0  0  0  0
  6  7  1  0  0  0  0
  7  8  1  0  0  0  0
  4  9  1  0  0  0  0
  9 10  1  0  0  0  0
 10 11  1  0  0  0  0
 11 12  1  0  0  0  0
 12 13  2  0  0  0  0
 12 14  2  0  0  0  0
 14 15  1  0  0  0  0
 15 16  1  0  0  0  0
 12 17  2  0  0  0  0
 17 18  1  0  0  0  0
 18 19  1  0  0  0  0
  1 20  1  0  0  0  0
  1 21  1  0  0  0  0
  1 22  1  0  0  0  0
  2 23  1  0  0  0  0
  2 24  1  0  0  0  0
  7 25  1  0  0  0  0
  7 26  1  0  0  0  0
  8 27  1  0  0  0  0
  8 28  1  0  0  0  0
  8 29  1  0  0  0  0
 10 30  1  0  0  0  0
 10 31  1  0  0  0  0
 15 32  1  0  0  0  0
 15 33  1  0  0  0  0
 16 34  1  0  0  0  0
 16 35  1  0  0  0  0
 16 36  1  0  0  0  0
 18 37  1  0  0  0  0
 18 38  1  0  0  0  0
 19 39  1  0  0  0  0
 19 40  1  0  0  0  0
 19 41  1  0  0  0  0
M  END
