19
 xtb: 6.7.1 (edcfbbe)
C           -2.59517675638294        0.56578903151514        0.00926891368925
C           -1.22381887635030       -0.05828601668189       -0.00147064554832
C           -1.13710830005966       -1.45445265027614       -0.00338593805834
C            0.09750272310463       -2.09181675154780       -0.00453561740729
C            1.26433841176823       -1.34011790829240       -0.00059570213906
C            1.18379760167319        0.05101877060234        0.00183770786163
C           -0.05185710265661        0.72354777591227       -0.00398583195342
C           -0.13556450361365        2.22761298880312       -0.01054335509497
O            2.39847020759854        0.71145513861772        0.00864635994982
H           -2.57282518264011        1.65461899361441       -0.01550228170892
H           -3.17930299990456        0.22065270787241       -0.85060764385614
H           -3.14378704720872        0.26276838645044        0.90793210988005
H           -2.05235861579835       -2.03974633981840       -0.00318956146026
H            0.15479927558965       -3.17592352572859       -0.00687596374433
H            2.24132358328798       -1.81234461184984        0.00164216086439
H           -0.62663287936113        2.60073889774001        0.89426508986909
H            0.83580257304106        2.72346349731823       -0.06875832100692
H           -0.71456390583898        2.58405281224450       -0.86822573126015
H            2.25492000758333        1.66628132565203        0.03049288541827
