41
 xtb: 6.7.1 (edcfbbe)
C            4.51582578155619       -2.63987865806825       -0.07119561973745
C            4.38092525419562       -1.91048881180533       -1.38511387566352
O            3.03136416175373       -1.35614353224783       -1.57780111368159
P            2.50657403290495       -0.09765898735915       -0.72436180405285
S            3.73298234518130        1.38232760987523       -0.41148419559340
O            1.88215732364900       -0.77167137381033        0.59952382460385
C            2.18780120027762       -0.32169710664836        1.96240859362450
C            1.30160982575139       -1.10845288130001        2.89372883317373
S            0.84488862069781        0.28303516787230       -1.99140389036471
C            0.32342155728060        1.92162937117240       -1.35812937242343
S           -0.35118346654249        1.99423032336440        0.34914647794564
P           -2.06036930770866        0.75299668577865        0.14890722500906
S           -3.02999547709174        0.91149627094272       -1.53187215033650
O           -2.84447575843032        1.12730147712063        1.50386264870525
C           -3.58643637643173        2.39699416804946        1.61009102200665
C           -5.05407174629206        2.09588617624343        1.77021851894322
O           -1.51400969908341       -0.69863617494742        0.55022794731369
C           -1.96019541893819       -1.93279610149382       -0.11245638729685
C           -1.06213681851633       -3.04075244628028        0.37361770523806
H            3.74783915944696       -3.41206438844660        0.03066044935888
H            5.49764131606102       -3.12394568547887       -0.04445832640939
H            4.45280331719176       -1.95747213818631        0.78151097161933
H            4.49894599727496       -2.58611236490445       -2.23418410886385
H            5.10172046128229       -1.09206067426773       -1.47776733088296
H            3.24817041949012       -0.50879077927032        2.15533335743928
H            1.99444013137139        0.75204054837780        2.02992830557905
H            1.53976924907872       -0.82731569014184        3.92427624379222
H            0.24585165048034       -0.89045564068829        2.71070485175497
H            1.47062694335513       -2.18348826411438        2.78134617812762
H           -0.43671370606925        2.27151175341671       -2.06229165332329
H            1.17377028685517        2.61044008382993       -1.36997482469754
H           -3.17175868321924        2.90306726767435        2.48531405291491
H           -3.39427541315348        3.00919615735018        0.72350074835800
H           -5.59727119672175        3.03688043602059        1.90432577080903
H           -5.44783653886810        1.59097908153611        0.88358852671676
H           -5.23006630490825        1.46755880664005        2.64786830638805
H           -3.00659864311964       -2.10525912790285        0.15624274563204
H           -1.88216028539445       -1.79248891340905       -1.19391650435561
H           -1.13322299689415       -3.16060798651280        1.45838846221971
H           -1.37543764415952       -3.97722169013273       -0.09831524270035
H           -0.02070111481949       -2.84688849417668        0.10121124156787
