 xtb: 6.7.1 (edcfbbe)
          04092505203D

 41 40  0     0  0            999 V2000
    3.4913    1.5115   -2.3659 C   0  0  0  0  0  0  0  0  0  0  0  0
    4.2042    1.3914   -1.0338 C   0  0  0  0  0  0  0  0  0  0  0  0
    3.7907    0.2220   -0.3120 O   0  0  0  0  0  0  0  0  0  0  0  0
    2.3264    0.0737    0.3007 P   0  0  0  0  0  0  0  0  0  0  0  0
    1.6804    1.7369    1.1153 S   0  0  0  0  0  0  0  0  0  0  0  0
    2.5191   -1.1589    1.2681 O   0  0  0  0  0  0  0  0  0  0  0  0
    2.5814   -1.0558    2.7105 C   0  0  0  0  0  0  0  0  0  0  0  0
    1.5450   -1.9759    3.3235 C   0  0  0  0  0  0  0  0  0  0  0  0
    1.2406   -0.8389   -1.2734 S   0  0  0  0  0  0  0  0  0  0  0  0
    0.0744   -1.8449   -0.3057 C   0  0  0  0  0  0  0  0  0  0  0  0
   -0.9862   -0.8869    0.7996 S   0  0  0  0  0  0  0  0  0  0  0  0
   -2.1603    0.1062   -0.6831 P   0  0  0  0  0  0  0  0  0  0  0  0
   -2.1246   -0.7200   -2.4587 S   0  0  0  0  0  0  0  0  0  0  0  0
   -1.6505    1.6003   -0.7035 O   0  0  0  0  0  0  0  0  0  0  0  0
   -2.1029    2.6610    0.1745 C   0  0  0  0  0  0  0  0  0  0  0  0
   -1.9146    2.3404    1.6416 C   0  0  0  0  0  0  0  0  0  0  0  0
   -3.6084    0.2460   -0.0413 O   0  0  0  0  0  0  0  0  0  0  0  0
   -4.6164   -0.7688   -0.1983 C   0  0  0  0  0  0  0  0  0  0  0  0
   -4.2605   -2.0510    0.5257 C   0  0  0  0  0  0  0  0  0  0  0  0
    3.8819    2.3638   -2.9125 H   0  0  0  0  0  0  0  0  0  0  0  0
    3.6314    0.6078   -2.9539 H   0  0  0  0  0  0  0  0  0  0  0  0
    2.4221    1.6557   -2.2034 H   0  0  0  0  0  0  0  0  0  0  0  0
    4.0080    2.2712   -0.4112 H   0  0  0  0  0  0  0  0  0  0  0  0
    5.2793    1.2591   -1.1614 H   0  0  0  0  0  0  0  0  0  0  0  0
    3.5948   -1.3468    2.9924 H   0  0  0  0  0  0  0  0  0  0  0  0
    2.4057   -0.0142    2.9995 H   0  0  0  0  0  0  0  0  0  0  0  0
    1.7187   -3.0006    3.0075 H   0  0  0  0  0  0  0  0  0  0  0  0
    1.6189   -1.9183    4.4045 H   0  0  0  0  0  0  0  0  0  0  0  0
    0.5451   -1.6735    3.0175 H   0  0  0  0  0  0  0  0  0  0  0  0
    0.6243   -2.5494    0.3122 H   0  0  0  0  0  0  0  0  0  0  0  0
   -0.5373   -2.3546   -1.0505 H   0  0  0  0  0  0  0  0  0  0  0  0
   -1.4889    3.5109   -0.1276 H   0  0  0  0  0  0  0  0  0  0  0  0
   -3.1531    2.8558   -0.0524 H   0  0  0  0  0  0  0  0  0  0  0  0
   -2.2517    3.1871    2.2312 H   0  0  0  0  0  0  0  0  0  0  0  0
   -2.4939    1.4613    1.9161 H   0  0  0  0  0  0  0  0  0  0  0  0
   -0.8651    2.1568    1.8582 H   0  0  0  0  0  0  0  0  0  0  0  0
   -5.5136   -0.3071    0.2162 H   0  0  0  0  0  0  0  0  0  0  0  0
   -4.7525   -0.9564   -1.2678 H   0  0  0  0  0  0  0  0  0  0  0  0
   -4.0091   -1.8454    1.5631 H   0  0  0  0  0  0  0  0  0  0  0  0
   -5.1071   -2.7288    0.4871 H   0  0  0  0  0  0  0  0  0  0  0  0
   -3.4079   -2.5260    0.0432 H   0  0  0  0  0  0  0  0  0  0  0  0
  1  2  1  0  0  0  0
  2  3  1  0  0  0  0
  3  4  2  0  0  0  0
  4  5  2  0  0  0  0
  4  6  2  0  0  0  0
  6  7  1  0  0  0  0
  7  8  1  0  0  0  0
  4  9  1  0  0  0  0
  9 10  1  0  0  0  0
 10 11  1  0  0  0  0
 11 12  1  0  0  0  0
 12 13  2  0  0  0  0
 12 14  2  0  0  0  0
 14 15  1  0  0  0  0
 15 16  1  0  0  0  0
 12 17  2  0  0  0  0
 17 18  1  0  0  0  0
 18 19  1  0  0  0  0
  1 20  1  0  0  0  0
  1 21  1  0  0  0  0
  1 22  1  0  0  0  0
  2 23  1  0  0  0  0
  2 24  1  0  0  0  0
  7 25  1  0  0  0  0
  7 26  1  0  0  0  0
  8 27  1  0  0  0  0
  8 28  1  0  0  0  0
  8 29  1  0  0  0  0
 10 30  1  0  0  0  0
 10 31  1  0  0  0  0
 15 32  1  0  0  0  0
 15 33  1  0  0  0  0
 16 34  1  0  0  0  0
 16 35  1  0  0  0  0
 16 36  1  0  0  0  0
 18 37  1  0  0  0  0
 18 38  1  0  0  0  0
 19 39  1  0  0  0  0
 19 40  1  0  0  0  0
 19 41  1  0  0  0  0
M  END
