 xtb: 6.7.1 (edcfbbe)
          04092505203D

 41 40  0     0  0            999 V2000
    4.5619    0.5895   -1.9250 C   0  0  0  0  0  0  0  0  0  0  0  0
    4.6354   -0.0947   -0.5765 C   0  0  0  0  0  0  0  0  0  0  0  0
    3.5676    0.2969    0.3074 O   0  0  0  0  0  0  0  0  0  0  0  0
    2.0207    0.2107   -0.0367 P   0  0  0  0  0  0  0  0  0  0  0  0
    1.2381    1.6180   -1.1534 S   0  0  0  0  0  0  0  0  0  0  0  0
    1.3631    0.2467    1.3969 O   0  0  0  0  0  0  0  0  0  0  0  0
    1.7552   -0.6486    2.4718 C   0  0  0  0  0  0  0  0  0  0  0  0
    2.6521    0.0713    3.4569 C   0  0  0  0  0  0  0  0  0  0  0  0
    1.8139   -1.7834   -0.7528 S   0  0  0  0  0  0  0  0  0  0  0  0
    0.0831   -1.6770   -1.2452 C   0  0  0  0  0  0  0  0  0  0  0  0
   -1.0488   -1.5111    0.1706 S   0  0  0  0  0  0  0  0  0  0  0  0
   -2.0698    0.2850   -0.3477 P   0  0  0  0  0  0  0  0  0  0  0  0
   -2.0838    0.7091   -2.2554 S   0  0  0  0  0  0  0  0  0  0  0  0
   -1.5009    1.4295    0.5705 O   0  0  0  0  0  0  0  0  0  0  0  0
   -1.5338    1.3684    2.0186 C   0  0  0  0  0  0  0  0  0  0  0  0
   -2.6907    2.1798    2.5625 C   0  0  0  0  0  0  0  0  0  0  0  0
   -3.5112    0.0587    0.2891 O   0  0  0  0  0  0  0  0  0  0  0  0
   -4.5072   -0.7791   -0.3304 C   0  0  0  0  0  0  0  0  0  0  0  0
   -4.5621   -2.1448    0.3264 C   0  0  0  0  0  0  0  0  0  0  0  0
    5.4275    0.3139   -2.5185 H   0  0  0  0  0  0  0  0  0  0  0  0
    3.6582    0.2861   -2.4523 H   0  0  0  0  0  0  0  0  0  0  0  0
    4.5366    1.6699   -1.8024 H   0  0  0  0  0  0  0  0  0  0  0  0
    5.5371    0.1930   -0.0331 H   0  0  0  0  0  0  0  0  0  0  0  0
    4.5997   -1.1814   -0.6921 H   0  0  0  0  0  0  0  0  0  0  0  0
    0.8156   -0.9581    2.9338 H   0  0  0  0  0  0  0  0  0  0  0  0
    2.2555   -1.5212    2.0433 H   0  0  0  0  0  0  0  0  0  0  0  0
    3.5662    0.3938    2.9655 H   0  0  0  0  0  0  0  0  0  0  0  0
    2.1455    0.9444    3.8585 H   0  0  0  0  0  0  0  0  0  0  0  0
    2.8995   -0.6047    4.2693 H   0  0  0  0  0  0  0  0  0  0  0  0
   -0.1453   -2.6107   -1.7529 H   0  0  0  0  0  0  0  0  0  0  0  0
   -0.0672   -0.8204   -1.9090 H   0  0  0  0  0  0  0  0  0  0  0  0
   -1.6032    0.3208    2.3253 H   0  0  0  0  0  0  0  0  0  0  0  0
   -0.5715    1.7812    2.3278 H   0  0  0  0  0  0  0  0  0  0  0  0
   -3.6356    1.7534    2.2367 H   0  0  0  0  0  0  0  0  0  0  0  0
   -2.6468    2.1748    3.6471 H   0  0  0  0  0  0  0  0  0  0  0  0
   -2.6258    3.2035    2.2039 H   0  0  0  0  0  0  0  0  0  0  0  0
   -5.4459   -0.2387   -0.1931 H   0  0  0  0  0  0  0  0  0  0  0  0
   -4.2894   -0.8524   -1.4009 H   0  0  0  0  0  0  0  0  0  0  0  0
   -3.6281   -2.6813    0.1803 H   0  0  0  0  0  0  0  0  0  0  0  0
   -4.7417   -2.0377    1.3923 H   0  0  0  0  0  0  0  0  0  0  0  0
   -5.3723   -2.7144   -0.1173 H   0  0  0  0  0  0  0  0  0  0  0  0
  1  2  1  0  0  0  0
  2  3  1  0  0  0  0
  3  4  2  0  0  0  0
  4  5  2  0  0  0  0
  4  6  2  0  0  0  0
  6  7  1  0  0  0  0
  7  8  1  0  0  0  0
  4  9  1  0  0  0  0
  9 10  1  0  0  0  0
 10 11  1  0  0  0  0
 11 12  1  0  0  0  0
 12 13  2  0  0  0  0
 12 14  2  0  0  0  0
 14 15  1  0  0  0  0
 15 16  1  0  0  0  0
 12 17  2  0  0  0  0
 17 18  1  0  0  0  0
 18 19  1  0  0  0  0
  1 20  1  0  0  0  0
  1 21  1  0  0  0  0
  1 22  1  0  0  0  0
  2 23  1  0  0  0  0
  2 24  1  0  0  0  0
  7 25  1  0  0  0  0
  7 26  1  0  0  0  0
  8 27  1  0  0  0  0
  8 28  1  0  0  0  0
  8 29  1  0  0  0  0
 10 30  1  0  0  0  0
 10 31  1  0  0  0  0
 15 32  1  0  0  0  0
 15 33  1  0  0  0  0
 16 34  1  0  0  0  0
 16 35  1  0  0  0  0
 16 36  1  0  0  0  0
 18 37  1  0  0  0  0
 18 38  1  0  0  0  0
 19 39  1  0  0  0  0
 19 40  1  0  0  0  0
 19 41  1  0  0  0  0
M  END
