 xtb: 6.7.1 (edcfbbe)
          04092505213D

 41 40  0     0  0            999 V2000
    4.5879    0.5440   -2.1654 C   0  0  0  0  0  0  0  0  0  0  0  0
    4.4727    1.1752   -0.7932 C   0  0  0  0  0  0  0  0  0  0  0  0
    3.7107    0.3586    0.1127 O   0  0  0  0  0  0  0  0  0  0  0  0
    2.1490    0.1104   -0.0661 P   0  0  0  0  0  0  0  0  0  0  0  0
    1.1669    1.7186   -0.6292 S   0  0  0  0  0  0  0  0  0  0  0  0
    1.7676   -0.4886    1.3486 O   0  0  0  0  0  0  0  0  0  0  0  0
    1.7209    0.3398    2.5317 C   0  0  0  0  0  0  0  0  0  0  0  0
    0.9546   -0.4184    3.5954 C   0  0  0  0  0  0  0  0  0  0  0  0
    2.0222   -1.6313   -1.2300 S   0  0  0  0  0  0  0  0  0  0  0  0
    0.2414   -1.6507   -1.5635 C   0  0  0  0  0  0  0  0  0  0  0  0
   -0.7674   -1.9169   -0.0735 S   0  0  0  0  0  0  0  0  0  0  0  0
   -1.8948   -0.1324   -0.0467 P   0  0  0  0  0  0  0  0  0  0  0  0
   -2.0898    0.7384   -1.7999 S   0  0  0  0  0  0  0  0  0  0  0  0
   -1.2513    0.6367    1.1778 O   0  0  0  0  0  0  0  0  0  0  0  0
   -1.9374    1.6615    1.9338 C   0  0  0  0  0  0  0  0  0  0  0  0
   -2.2377    2.8854    1.0944 C   0  0  0  0  0  0  0  0  0  0  0  0
   -3.2802   -0.5811    0.5930 O   0  0  0  0  0  0  0  0  0  0  0  0
   -4.3139   -1.2113   -0.1881 C   0  0  0  0  0  0  0  0  0  0  0  0
   -5.6425   -0.9569    0.4954 C   0  0  0  0  0  0  0  0  0  0  0  0
    4.9607   -0.4737   -2.0832 H   0  0  0  0  0  0  0  0  0  0  0  0
    3.6105    0.5209   -2.6462 H   0  0  0  0  0  0  0  0  0  0  0  0
    5.2661    1.1312   -2.7760 H   0  0  0  0  0  0  0  0  0  0  0  0
    3.9922    2.1568   -0.8596 H   0  0  0  0  0  0  0  0  0  0  0  0
    5.4447    1.2676   -0.3070 H   0  0  0  0  0  0  0  0  0  0  0  0
    2.7493    0.5419    2.8411 H   0  0  0  0  0  0  0  0  0  0  0  0
    1.2325    1.2851    2.2712 H   0  0  0  0  0  0  0  0  0  0  0  0
    1.4483   -1.3637    3.8007 H   0  0  0  0  0  0  0  0  0  0  0  0
    0.9169    0.1756    4.5028 H   0  0  0  0  0  0  0  0  0  0  0  0
   -0.0561   -0.6214    3.2508 H   0  0  0  0  0  0  0  0  0  0  0  0
    0.0802   -2.4895   -2.2359 H   0  0  0  0  0  0  0  0  0  0  0  0
   -0.0696   -0.7103   -2.0292 H   0  0  0  0  0  0  0  0  0  0  0  0
   -2.8520    1.2296    2.3455 H   0  0  0  0  0  0  0  0  0  0  0  0
   -1.2389    1.8941    2.7397 H   0  0  0  0  0  0  0  0  0  0  0  0
   -2.9601    2.6425    0.3165 H   0  0  0  0  0  0  0  0  0  0  0  0
   -2.6434    3.6692    1.7261 H   0  0  0  0  0  0  0  0  0  0  0  0
   -1.3282    3.2421    0.6136 H   0  0  0  0  0  0  0  0  0  0  0  0
   -4.2940   -0.7886   -1.1984 H   0  0  0  0  0  0  0  0  0  0  0  0
   -4.0895   -2.2794   -0.2408 H   0  0  0  0  0  0  0  0  0  0  0  0
   -5.6197   -1.3474    1.5088 H   0  0  0  0  0  0  0  0  0  0  0  0
   -5.8492    0.1092    0.5312 H   0  0  0  0  0  0  0  0  0  0  0  0
   -6.4287   -1.4535   -0.0635 H   0  0  0  0  0  0  0  0  0  0  0  0
  1  2  1  0  0  0  0
  2  3  1  0  0  0  0
  3  4  2  0  0  0  0
  4  5  2  0  0  0  0
  4  6  2  0  0  0  0
  6  7  1  0  0  0  0
  7  8  1  0  0  0  0
  4  9  1  0  0  0  0
  9 10  1  0  0  0  0
 10 11  1  0  0  0  0
 11 12  1  0  0  0  0
 12 13  2  0  0  0  0
 12 14  2  0  0  0  0
 14 15  1  0  0  0  0
 15 16  1  0  0  0  0
 12 17  2  0  0  0  0
 17 18  1  0  0  0  0
 18 19  1  0  0  0  0
  1 20  1  0  0  0  0
  1 21  1  0  0  0  0
  1 22  1  0  0  0  0
  2 23  1  0  0  0  0
  2 24  1  0  0  0  0
  7 25  1  0  0  0  0
  7 26  1  0  0  0  0
  8 27  1  0  0  0  0
  8 28  1  0  0  0  0
  8 29  1  0  0  0  0
 10 30  1  0  0  0  0
 10 31  1  0  0  0  0
 15 32  1  0  0  0  0
 15 33  1  0  0  0  0
 16 34  1  0  0  0  0
 16 35  1  0  0  0  0
 16 36  1  0  0  0  0
 18 37  1  0  0  0  0
 18 38  1  0  0  0  0
 19 39  1  0  0  0  0
 19 40  1  0  0  0  0
 19 41  1  0  0  0  0
M  END
