 xtb: 6.7.1 (edcfbbe)
          04032520463D

  5  4  0     0  0            999 V2000
   -1.2385    0.0000    0.0000 C   0  0  0  0  0  0  0  0  0  0  0  0
    0.5533   -0.0000    0.0000 Cl  0  0  0  0  0  0  0  0  0  0  0  0
   -1.5679   -0.0826   -1.0294 H   0  0  0  0  0  0  0  0  0  0  0  0
   -1.5680   -0.8502    0.5861 H   0  0  0  0  0  0  0  0  0  0  0  0
   -1.5679    0.9327    0.4431 H   0  0  0  0  0  0  0  0  0  0  0  0
  1  2  1  0  0  0  0
  1  3  1  0  0  0  0
  1  4  1  0  0  0  0
  1  5  1  0  0  0  0
M  END
