 xtb: 6.7.1 (edcfbbe)
          04092514003D

 41 40  0     0  0            999 V2000
    3.3821   -2.9886   -0.8753 C   0  0  0  0  0  0  0  0  0  0  0  0
    3.8730   -1.8409   -1.7299 C   0  0  0  0  0  0  0  0  0  0  0  0
    4.0101   -0.6046   -0.9853 O   0  0  0  0  0  0  0  0  0  0  0  0
    2.8954    0.1221   -0.1520 P   0  0  0  0  0  0  0  0  0  0  0  0
    3.3199    2.0080    0.1579 S   0  0  0  0  0  0  0  0  0  0  0  0
    2.8456   -0.7558    1.1753 O   0  0  0  0  0  0  0  0  0  0  0  0
    2.1306   -0.3614    2.3601 C   0  0  0  0  0  0  0  0  0  0  0  0
    0.9520   -1.2870    2.5916 C   0  0  0  0  0  0  0  0  0  0  0  0
    1.0815   -0.2378   -1.2362 S   0  0  0  0  0  0  0  0  0  0  0  0
    0.2975    1.3713   -1.0012 C   0  0  0  0  0  0  0  0  0  0  0  0
   -0.6423    1.4878    0.5460 S   0  0  0  0  0  0  0  0  0  0  0  0
   -2.2650    0.2803   -0.0706 P   0  0  0  0  0  0  0  0  0  0  0  0
   -2.8531    0.5094   -1.9322 S   0  0  0  0  0  0  0  0  0  0  0  0
   -3.3711    0.5588    1.0321 O   0  0  0  0  0  0  0  0  0  0  0  0
   -4.1830    1.7501    1.0121 C   0  0  0  0  0  0  0  0  0  0  0  0
   -5.3890    1.5066    1.8971 C   0  0  0  0  0  0  0  0  0  0  0  0
   -1.7530   -1.1601    0.3296 O   0  0  0  0  0  0  0  0  0  0  0  0
   -2.2778   -2.3610   -0.2773 C   0  0  0  0  0  0  0  0  0  0  0  0
   -3.6960   -2.6381    0.1735 C   0  0  0  0  0  0  0  0  0  0  0  0
    3.3884   -3.8984   -1.4678 H   0  0  0  0  0  0  0  0  0  0  0  0
    4.0262   -3.1166   -0.0094 H   0  0  0  0  0  0  0  0  0  0  0  0
    2.3665   -2.7940   -0.5364 H   0  0  0  0  0  0  0  0  0  0  0  0
    3.1937   -1.6588   -2.5665 H   0  0  0  0  0  0  0  0  0  0  0  0
    4.8829   -2.0170   -2.1033 H   0  0  0  0  0  0  0  0  0  0  0  0
    2.8549   -0.4359    3.1740 H   0  0  0  0  0  0  0  0  0  0  0  0
    1.8103    0.6817    2.2642 H   0  0  0  0  0  0  0  0  0  0  0  0
    0.2355   -1.2104    1.7772 H   0  0  0  0  0  0  0  0  0  0  0  0
    1.2968   -2.3146    2.6634 H   0  0  0  0  0  0  0  0  0  0  0  0
    0.4588   -1.0070    3.5168 H   0  0  0  0  0  0  0  0  0  0  0  0
   -0.3803    1.5216   -1.8418 H   0  0  0  0  0  0  0  0  0  0  0  0
    1.0666    2.1448   -0.9604 H   0  0  0  0  0  0  0  0  0  0  0  0
   -3.5786    2.5828    1.3820 H   0  0  0  0  0  0  0  0  0  0  0  0
   -4.4784    1.9552   -0.0226 H   0  0  0  0  0  0  0  0  0  0  0  0
   -5.9986    2.4039    1.9226 H   0  0  0  0  0  0  0  0  0  0  0  0
   -5.9808    0.6829    1.5082 H   0  0  0  0  0  0  0  0  0  0  0  0
   -5.0646    1.2629    2.9045 H   0  0  0  0  0  0  0  0  0  0  0  0
   -2.2281   -2.2497   -1.3651 H   0  0  0  0  0  0  0  0  0  0  0  0
   -1.5886   -3.1412    0.0474 H   0  0  0  0  0  0  0  0  0  0  0  0
   -3.7477   -2.6626    1.2587 H   0  0  0  0  0  0  0  0  0  0  0  0
   -4.3596   -1.8560   -0.1933 H   0  0  0  0  0  0  0  0  0  0  0  0
   -4.0210   -3.5932   -0.2272 H   0  0  0  0  0  0  0  0  0  0  0  0
  1  2  1  0  0  0  0
  2  3  1  0  0  0  0
  3  4  2  0  0  0  0
  4  5  2  0  0  0  0
  4  6  2  0  0  0  0
  6  7  1  0  0  0  0
  7  8  1  0  0  0  0
  4  9  1  0  0  0  0
  9 10  1  0  0  0  0
 10 11  1  0  0  0  0
 11 12  1  0  0  0  0
 12 13  2  0  0  0  0
 12 14  2  0  0  0  0
 14 15  1  0  0  0  0
 15 16  1  0  0  0  0
 12 17  2  0  0  0  0
 17 18  1  0  0  0  0
 18 19  1  0  0  0  0
  1 20  1  0  0  0  0
  1 21  1  0  0  0  0
  1 22  1  0  0  0  0
  2 23  1  0  0  0  0
  2 24  1  0  0  0  0
  7 25  1  0  0  0  0
  7 26  1  0  0  0  0
  8 27  1  0  0  0  0
  8 28  1  0  0  0  0
  8 29  1  0  0  0  0
 10 30  1  0  0  0  0
 10 31  1  0  0  0  0
 15 32  1  0  0  0  0
 15 33  1  0  0  0  0
 16 34  1  0  0  0  0
 16 35  1  0  0  0  0
 16 36  1  0  0  0  0
 18 37  1  0  0  0  0
 18 38  1  0  0  0  0
 19 39  1  0  0  0  0
 19 40  1  0  0  0  0
 19 41  1  0  0  0  0
M  END
