 xtb: 6.7.1 (edcfbbe)
          04092514023D

 41 40  0     0  0            999 V2000
    4.9230   -1.3245   -1.0657 C   0  0  0  0  0  0  0  0  0  0  0  0
    4.8424    0.0837   -0.5126 C   0  0  0  0  0  0  0  0  0  0  0  0
    3.6676    0.2949    0.2911 O   0  0  0  0  0  0  0  0  0  0  0  0
    2.1951    0.4108   -0.3069 P   0  0  0  0  0  0  0  0  0  0  0  0
    2.1041    1.2685   -2.0723 S   0  0  0  0  0  0  0  0  0  0  0  0
    1.4566    1.1652    0.8776 O   0  0  0  0  0  0  0  0  0  0  0  0
    1.7092    2.5752    1.0875 C   0  0  0  0  0  0  0  0  0  0  0  0
    0.6662    3.1097    2.0450 C   0  0  0  0  0  0  0  0  0  0  0  0
    1.3772   -1.5150   -0.1075 S   0  0  0  0  0  0  0  0  0  0  0  0
    0.1772   -1.4911   -1.4917 C   0  0  0  0  0  0  0  0  0  0  0  0
   -1.4363   -2.1509   -1.0166 S   0  0  0  0  0  0  0  0  0  0  0  0
   -2.1612   -0.5104    0.0795 P   0  0  0  0  0  0  0  0  0  0  0  0
   -1.6845    1.2753   -0.5943 S   0  0  0  0  0  0  0  0  0  0  0  0
   -1.6611   -0.8560    1.5359 O   0  0  0  0  0  0  0  0  0  0  0  0
   -1.7301    0.0932    2.6257 C   0  0  0  0  0  0  0  0  0  0  0  0
   -0.6348   -0.2503    3.6131 C   0  0  0  0  0  0  0  0  0  0  0  0
   -3.7186   -0.8099    0.2065 O   0  0  0  0  0  0  0  0  0  0  0  0
   -4.6655   -0.5362   -0.8480 C   0  0  0  0  0  0  0  0  0  0  0  0
   -5.4905    0.6883   -0.5014 C   0  0  0  0  0  0  0  0  0  0  0  0
    4.8419   -2.0545   -0.2648 H   0  0  0  0  0  0  0  0  0  0  0  0
    4.1184   -1.4922   -1.7798 H   0  0  0  0  0  0  0  0  0  0  0  0
    5.8750   -1.4506   -1.5726 H   0  0  0  0  0  0  0  0  0  0  0  0
    4.8401    0.8161   -1.3261 H   0  0  0  0  0  0  0  0  0  0  0  0
    5.6660    0.2911    0.1726 H   0  0  0  0  0  0  0  0  0  0  0  0
    2.7193    2.6812    1.4916 H   0  0  0  0  0  0  0  0  0  0  0  0
    1.6543    3.0831    0.1181 H   0  0  0  0  0  0  0  0  0  0  0  0
   -0.3227    3.0069    1.6055 H   0  0  0  0  0  0  0  0  0  0  0  0
    0.7029    2.5620    2.9820 H   0  0  0  0  0  0  0  0  0  0  0  0
    0.8620    4.1607    2.2313 H   0  0  0  0  0  0  0  0  0  0  0  0
    0.5446   -2.1423   -2.2807 H   0  0  0  0  0  0  0  0  0  0  0  0
    0.0705   -0.4632   -1.8485 H   0  0  0  0  0  0  0  0  0  0  0  0
   -1.6017    1.1011    2.2179 H   0  0  0  0  0  0  0  0  0  0  0  0
   -2.7215    0.0118    3.0770 H   0  0  0  0  0  0  0  0  0  0  0  0
   -0.7717   -1.2631    3.9806 H   0  0  0  0  0  0  0  0  0  0  0  0
    0.3361   -0.1821    3.1279 H   0  0  0  0  0  0  0  0  0  0  0  0
   -0.6739    0.4446    4.4461 H   0  0  0  0  0  0  0  0  0  0  0  0
   -4.1303   -0.3934   -1.7906 H   0  0  0  0  0  0  0  0  0  0  0  0
   -5.2870   -1.4311   -0.9148 H   0  0  0  0  0  0  0  0  0  0  0  0
   -4.8463    1.5617   -0.4244 H   0  0  0  0  0  0  0  0  0  0  0  0
   -6.2257    0.8580   -1.2814 H   0  0  0  0  0  0  0  0  0  0  0  0
   -5.9995    0.5402    0.4468 H   0  0  0  0  0  0  0  0  0  0  0  0
  1  2  1  0  0  0  0
  2  3  1  0  0  0  0
  3  4  2  0  0  0  0
  4  5  2  0  0  0  0
  4  6  2  0  0  0  0
  6  7  1  0  0  0  0
  7  8  1  0  0  0  0
  4  9  1  0  0  0  0
  9 10  1  0  0  0  0
 10 11  1  0  0  0  0
 11 12  1  0  0  0  0
 12 13  2  0  0  0  0
 12 14  2  0  0  0  0
 14 15  1  0  0  0  0
 15 16  1  0  0  0  0
 12 17  2  0  0  0  0
 17 18  1  0  0  0  0
 18 19  1  0  0  0  0
  1 20  1  0  0  0  0
  1 21  1  0  0  0  0
  1 22  1  0  0  0  0
  2 23  1  0  0  0  0
  2 24  1  0  0  0  0
  7 25  1  0  0  0  0
  7 26  1  0  0  0  0
  8 27  1  0  0  0  0
  8 28  1  0  0  0  0
  8 29  1  0  0  0  0
 10 30  1  0  0  0  0
 10 31  1  0  0  0  0
 15 32  1  0  0  0  0
 15 33  1  0  0  0  0
 16 34  1  0  0  0  0
 16 35  1  0  0  0  0
 16 36  1  0  0  0  0
 18 37  1  0  0  0  0
 18 38  1  0  0  0  0
 19 39  1  0  0  0  0
 19 40  1  0  0  0  0
 19 41  1  0  0  0  0
M  END
