 xtb: 6.7.1 (edcfbbe)
          04092505213D

 41 40  0     0  0            999 V2000
    3.5786   -0.9401   -3.0344 C   0  0  0  0  0  0  0  0  0  0  0  0
    4.3146   -0.6365   -1.7467 C   0  0  0  0  0  0  0  0  0  0  0  0
    3.6359    0.3387   -0.9323 O   0  0  0  0  0  0  0  0  0  0  0  0
    2.1167    0.2530   -0.4764 P   0  0  0  0  0  0  0  0  0  0  0  0
    0.7779    0.8400   -1.7764 S   0  0  0  0  0  0  0  0  0  0  0  0
    2.0891    1.2328    0.7545 O   0  0  0  0  0  0  0  0  0  0  0  0
    3.0349    1.2462    1.8522 C   0  0  0  0  0  0  0  0  0  0  0  0
    2.4831    0.5048    3.0545 C   0  0  0  0  0  0  0  0  0  0  0  0
    1.9955   -1.7494    0.2556 S   0  0  0  0  0  0  0  0  0  0  0  0
    0.3248   -1.7187    0.9391 C   0  0  0  0  0  0  0  0  0  0  0  0
   -0.9839   -1.7891   -0.3353 S   0  0  0  0  0  0  0  0  0  0  0  0
   -2.1443   -0.1707    0.3521 P   0  0  0  0  0  0  0  0  0  0  0  0
   -1.2233    1.2541    1.3505 S   0  0  0  0  0  0  0  0  0  0  0  0
   -3.1722   -0.9756    1.2510 O   0  0  0  0  0  0  0  0  0  0  0  0
   -3.9557   -0.3505    2.2864 C   0  0  0  0  0  0  0  0  0  0  0  0
   -5.0000    0.5835    1.7128 C   0  0  0  0  0  0  0  0  0  0  0  0
   -3.0721    0.2081   -0.8755 O   0  0  0  0  0  0  0  0  0  0  0  0
   -2.7205    0.9055   -2.0825 C   0  0  0  0  0  0  0  0  0  0  0  0
   -2.6375    2.4025   -1.8605 C   0  0  0  0  0  0  0  0  0  0  0  0
    3.3975   -0.0247   -3.5932 H   0  0  0  0  0  0  0  0  0  0  0  0
    4.1718   -1.6198   -3.6374 H   0  0  0  0  0  0  0  0  0  0  0  0
    2.6174   -1.4050   -2.8173 H   0  0  0  0  0  0  0  0  0  0  0  0
    5.2851   -0.1762   -1.9402 H   0  0  0  0  0  0  0  0  0  0  0  0
    4.4432   -1.5448   -1.1515 H   0  0  0  0  0  0  0  0  0  0  0  0
    3.9810    0.8204    1.5136 H   0  0  0  0  0  0  0  0  0  0  0  0
    3.1637    2.3073    2.0716 H   0  0  0  0  0  0  0  0  0  0  0  0
    3.1201    0.6997    3.9114 H   0  0  0  0  0  0  0  0  0  0  0  0
    1.4774    0.8583    3.2725 H   0  0  0  0  0  0  0  0  0  0  0  0
    2.4555   -0.5668    2.8725 H   0  0  0  0  0  0  0  0  0  0  0  0
    0.1842   -0.8026    1.5197 H   0  0  0  0  0  0  0  0  0  0  0  0
    0.2441   -2.6049    1.5628 H   0  0  0  0  0  0  0  0  0  0  0  0
   -4.4067   -1.1911    2.8149 H   0  0  0  0  0  0  0  0  0  0  0  0
   -3.2777    0.1927    2.9528 H   0  0  0  0  0  0  0  0  0  0  0  0
   -5.6125    0.0598    0.9836 H   0  0  0  0  0  0  0  0  0  0  0  0
   -5.6285    0.9603    2.5136 H   0  0  0  0  0  0  0  0  0  0  0  0
   -4.5096    1.4229    1.2212 H   0  0  0  0  0  0  0  0  0  0  0  0
   -1.7724    0.5215   -2.4671 H   0  0  0  0  0  0  0  0  0  0  0  0
   -3.5284    0.6497   -2.7707 H   0  0  0  0  0  0  0  0  0  0  0  0
   -2.4587    2.8919   -2.8122 H   0  0  0  0  0  0  0  0  0  0  0  0
   -3.5626    2.7750   -1.4282 H   0  0  0  0  0  0  0  0  0  0  0  0
   -1.8117    2.6378   -1.1919 H   0  0  0  0  0  0  0  0  0  0  0  0
  1  2  1  0  0  0  0
  2  3  1  0  0  0  0
  3  4  2  0  0  0  0
  4  5  2  0  0  0  0
  4  6  2  0  0  0  0
  6  7  1  0  0  0  0
  7  8  1  0  0  0  0
  4  9  1  0  0  0  0
  9 10  1  0  0  0  0
 10 11  1  0  0  0  0
 11 12  1  0  0  0  0
 12 13  2  0  0  0  0
 12 14  2  0  0  0  0
 14 15  1  0  0  0  0
 15 16  1  0  0  0  0
 12 17  2  0  0  0  0
 17 18  1  0  0  0  0
 18 19  1  0  0  0  0
  1 20  1  0  0  0  0
  1 21  1  0  0  0  0
  1 22  1  0  0  0  0
  2 23  1  0  0  0  0
  2 24  1  0  0  0  0
  7 25  1  0  0  0  0
  7 26  1  0  0  0  0
  8 27  1  0  0  0  0
  8 28  1  0  0  0  0
  8 29  1  0  0  0  0
 10 30  1  0  0  0  0
 10 31  1  0  0  0  0
 15 32  1  0  0  0  0
 15 33  1  0  0  0  0
 16 34  1  0  0  0  0
 16 35  1  0  0  0  0
 16 36  1  0  0  0  0
 18 37  1  0  0  0  0
 18 38  1  0  0  0  0
 19 39  1  0  0  0  0
 19 40  1  0  0  0  0
 19 41  1  0  0  0  0
M  END
