5
 xtb: 6.7.1 (edcfbbe)
C           -0.00001111287629       -0.00004551506769        0.49811253559644
Cl          -1.61159435504602        0.53604586446499       -0.06621259702212
Cl           0.34205731065321       -1.66360058056453       -0.06633771402202
Cl           1.26982581940228        1.12771108636055       -0.06657501026487
H           -0.00030496199006       -0.00011627359693        1.58785284875988
