  20
 
 C         -2.0726916281       -1.3388027283        0.5788606529
 C         -1.8249458868       -0.1347946589       -0.3263676553
 C         -2.9715852372        0.8678816182       -0.2298976874
 C         -0.5129137395        0.5508422112        0.0478043532
 O          0.5706162229       -0.3548040667       -0.1975134199
 C          1.8018727272        0.0837656322        0.0311698980
 O          2.0401253092        1.2021189732        0.4418745367
 C          2.8336792190       -0.9536058205       -0.2928734564
 H         -1.2356759597       -2.0294808210        0.5226118454
 H         -2.9755736363       -1.8599074001        0.2731848313
 H         -2.1900011063       -1.0172298611        1.6112499221
 H         -1.7331963230       -0.4829484012       -1.3597554658
 H         -2.8072055992        1.7092184706       -0.8980816313
 H         -3.0568235110        1.2461824774        0.7859755028
 H         -3.9082903621        0.3889855353       -0.4998647851
 H         -0.3504483909        1.4569032568       -0.5459622373
 H         -0.4992996826        0.8337754401        1.1060875451
 H          3.1228199232       -0.8352293388       -1.3351749857
 H          2.4175166800       -1.9458404402       -0.1553593790
 H          3.7099896575       -0.8027702049        0.3292588638
          20
        -27.12639931
 C         -2.7787386484        0.8842603093        0.0756589617
 C         -1.5342418290        0.0300414611        0.2992234717
 C         -1.8994619611       -1.4465289715        0.4298644454
 C         -0.5542360104        0.2366562844       -0.8599830037
 O          0.6798882628       -0.4559326184       -0.6373065589
 C          1.6420180019        0.1652859996        0.0355560032
 O          1.5438836603        1.3021384936        0.4508174335
 C          2.8468112332       -0.7099974178        0.2095318189
 H         -2.5166972770        1.9378200103        0.0207502640
 H         -3.4772468434        0.7446686053        0.8958066986
 H         -3.2704633937        0.5992880255       -0.8510750348
 H         -1.0341828825        0.3606146196        1.2171656178
 H         -1.0025095136       -2.0529030177        0.5290997454
 H         -2.4444350162       -1.7765927012       -0.4512116152
 H         -2.5246985850       -1.6039629130        1.3044624444
 H         -0.9520478006       -0.1830158827       -1.7849686668
 H         -0.3393498099        1.3022877624       -0.9881919910
 H          3.7458890508       -0.1256516502        0.0380049323
 H          2.7923425184       -1.5543575286       -0.4687864263
 H          2.8680571570       -1.0673392494        1.2368360617
