 xtb: 6.7.1 (edcfbbe)
          04092505213D

 41 40  0     0  0            999 V2000
    1.7815   -2.8840    0.3472 C   0  0  0  0  0  0  0  0  0  0  0  0
    2.3873   -1.9944    1.4123 C   0  0  0  0  0  0  0  0  0  0  0  0
    3.2485   -0.9750    0.8734 O   0  0  0  0  0  0  0  0  0  0  0  0
    2.8651    0.0421   -0.2867 P   0  0  0  0  0  0  0  0  0  0  0  0
    2.9444   -0.6004   -2.1379 S   0  0  0  0  0  0  0  0  0  0  0  0
    3.9649    1.1549   -0.0932 O   0  0  0  0  0  0  0  0  0  0  0  0
    4.5023    1.6077    1.1730 C   0  0  0  0  0  0  0  0  0  0  0  0
    3.4525    2.2489    2.0557 C   0  0  0  0  0  0  0  0  0  0  0  0
    0.9837    0.8867    0.3003 S   0  0  0  0  0  0  0  0  0  0  0  0
    0.0146    0.5605   -1.1918 C   0  0  0  0  0  0  0  0  0  0  0  0
   -1.2056   -0.7526   -0.9793 S   0  0  0  0  0  0  0  0  0  0  0  0
   -2.8540    0.4173   -0.2717 P   0  0  0  0  0  0  0  0  0  0  0  0
   -2.6613    2.3423   -0.5910 S   0  0  0  0  0  0  0  0  0  0  0  0
   -3.1016    0.0062    1.2455 O   0  0  0  0  0  0  0  0  0  0  0  0
   -2.1773    0.3392    2.3002 C   0  0  0  0  0  0  0  0  0  0  0  0
   -1.3784   -0.8859    2.7008 C   0  0  0  0  0  0  0  0  0  0  0  0
   -4.1367   -0.1605   -0.9726 O   0  0  0  0  0  0  0  0  0  0  0  0
   -4.8075   -1.3956   -0.6120 C   0  0  0  0  0  0  0  0  0  0  0  0
   -3.9144   -2.6072   -0.7675 C   0  0  0  0  0  0  0  0  0  0  0  0
    1.2279   -3.6882    0.8211 H   0  0  0  0  0  0  0  0  0  0  0  0
    1.1013   -2.3163   -0.2882 H   0  0  0  0  0  0  0  0  0  0  0  0
    2.5607   -3.3066   -0.2828 H   0  0  0  0  0  0  0  0  0  0  0  0
    3.0448   -2.5598    2.0750 H   0  0  0  0  0  0  0  0  0  0  0  0
    1.6063   -1.5012    1.9974 H   0  0  0  0  0  0  0  0  0  0  0  0
    4.9661    0.7542    1.6706 H   0  0  0  0  0  0  0  0  0  0  0  0
    5.2684    2.3251    0.8746 H   0  0  0  0  0  0  0  0  0  0  0  0
    3.9322    2.6454    2.9452 H   0  0  0  0  0  0  0  0  0  0  0  0
    2.9538    3.0581    1.5281 H   0  0  0  0  0  0  0  0  0  0  0  0
    2.7051    1.5153    2.3528 H   0  0  0  0  0  0  0  0  0  0  0  0
    0.6969    0.2460   -1.9859 H   0  0  0  0  0  0  0  0  0  0  0  0
   -0.5093    1.4812   -1.4542 H   0  0  0  0  0  0  0  0  0  0  0  0
   -1.5235    1.1526    1.9680 H   0  0  0  0  0  0  0  0  0  0  0  0
   -2.8009    0.6942    3.1229 H   0  0  0  0  0  0  0  0  0  0  0  0
   -0.7180   -0.6233    3.5207 H   0  0  0  0  0  0  0  0  0  0  0  0
   -2.0481   -1.6796    3.0188 H   0  0  0  0  0  0  0  0  0  0  0  0
   -0.7869   -1.2400    1.8605 H   0  0  0  0  0  0  0  0  0  0  0  0
   -5.1649   -1.2991    0.4146 H   0  0  0  0  0  0  0  0  0  0  0  0
   -5.6533   -1.4261   -1.3003 H   0  0  0  0  0  0  0  0  0  0  0  0
   -3.5154   -2.6600   -1.7773 H   0  0  0  0  0  0  0  0  0  0  0  0
   -3.0829   -2.5566   -0.0672 H   0  0  0  0  0  0  0  0  0  0  0  0
   -4.4937   -3.5027   -0.5649 H   0  0  0  0  0  0  0  0  0  0  0  0
  1  2  1  0  0  0  0
  2  3  1  0  0  0  0
  3  4  2  0  0  0  0
  4  5  2  0  0  0  0
  4  6  2  0  0  0  0
  6  7  1  0  0  0  0
  7  8  1  0  0  0  0
  4  9  1  0  0  0  0
  9 10  1  0  0  0  0
 10 11  1  0  0  0  0
 11 12  1  0  0  0  0
 12 13  2  0  0  0  0
 12 14  2  0  0  0  0
 14 15  1  0  0  0  0
 15 16  1  0  0  0  0
 12 17  2  0  0  0  0
 17 18  1  0  0  0  0
 18 19  1  0  0  0  0
  1 20  1  0  0  0  0
  1 21  1  0  0  0  0
  1 22  1  0  0  0  0
  2 23  1  0  0  0  0
  2 24  1  0  0  0  0
  7 25  1  0  0  0  0
  7 26  1  0  0  0  0
  8 27  1  0  0  0  0
  8 28  1  0  0  0  0
  8 29  1  0  0  0  0
 10 30  1  0  0  0  0
 10 31  1  0  0  0  0
 15 32  1  0  0  0  0
 15 33  1  0  0  0  0
 16 34  1  0  0  0  0
 16 35  1  0  0  0  0
 16 36  1  0  0  0  0
 18 37  1  0  0  0  0
 18 38  1  0  0  0  0
 19 39  1  0  0  0  0
 19 40  1  0  0  0  0
 19 41  1  0  0  0  0
M  END
