 xtb: 6.7.1 (edcfbbe)
          04092505213D

 41 40  0     0  0            999 V2000
    5.8086   -1.5773   -1.3648 C   0  0  0  0  0  0  0  0  0  0  0  0
    4.5131   -0.8054   -1.5104 C   0  0  0  0  0  0  0  0  0  0  0  0
    3.7906   -0.9152   -0.2656 O   0  0  0  0  0  0  0  0  0  0  0  0
    2.5735    0.0512    0.0584 P   0  0  0  0  0  0  0  0  0  0  0  0
    2.9374    1.9668   -0.0789 S   0  0  0  0  0  0  0  0  0  0  0  0
    2.1582   -0.3664    1.5161 O   0  0  0  0  0  0  0  0  0  0  0  0
    1.8489   -1.7272    1.9092 C   0  0  0  0  0  0  0  0  0  0  0  0
    3.0629   -2.4018    2.5133 C   0  0  0  0  0  0  0  0  0  0  0  0
    1.0484   -0.6761   -1.2471 S   0  0  0  0  0  0  0  0  0  0  0  0
   -0.0376    0.7576   -1.0869 C   0  0  0  0  0  0  0  0  0  0  0  0
   -0.8490    0.8532    0.5343 S   0  0  0  0  0  0  0  0  0  0  0  0
   -2.8441    0.2932   -0.0040 P   0  0  0  0  0  0  0  0  0  0  0  0
   -3.1977    0.1888   -1.9337 S   0  0  0  0  0  0  0  0  0  0  0  0
   -3.7266    1.3213    0.8118 O   0  0  0  0  0  0  0  0  0  0  0  0
   -3.7521    2.7158    0.4458 C   0  0  0  0  0  0  0  0  0  0  0  0
   -4.8834    3.3724    1.2104 C   0  0  0  0  0  0  0  0  0  0  0  0
   -3.2332   -0.9748    0.8514 O   0  0  0  0  0  0  0  0  0  0  0  0
   -3.1362   -2.3136    0.3301 C   0  0  0  0  0  0  0  0  0  0  0  0
   -1.7019   -2.8013    0.3001 C   0  0  0  0  0  0  0  0  0  0  0  0
    5.5986   -2.6205   -1.1474 H   0  0  0  0  0  0  0  0  0  0  0  0
    6.3679   -1.5100   -2.2921 H   0  0  0  0  0  0  0  0  0  0  0  0
    6.4033   -1.1598   -0.5572 H   0  0  0  0  0  0  0  0  0  0  0  0
    3.8868   -1.2191   -2.3053 H   0  0  0  0  0  0  0  0  0  0  0  0
    4.6969    0.2547   -1.7134 H   0  0  0  0  0  0  0  0  0  0  0  0
    1.0460   -1.6179    2.6409 H   0  0  0  0  0  0  0  0  0  0  0  0
    1.4863   -2.2750    1.0346 H   0  0  0  0  0  0  0  0  0  0  0  0
    2.7839   -3.3933    2.8559 H   0  0  0  0  0  0  0  0  0  0  0  0
    3.8533   -2.4859    1.7725 H   0  0  0  0  0  0  0  0  0  0  0  0
    3.4316   -1.8212    3.3544 H   0  0  0  0  0  0  0  0  0  0  0  0
   -0.8006    0.6774   -1.8652 H   0  0  0  0  0  0  0  0  0  0  0  0
    0.5632    1.6597   -1.2048 H   0  0  0  0  0  0  0  0  0  0  0  0
   -2.7859    3.1610    0.7030 H   0  0  0  0  0  0  0  0  0  0  0  0
   -3.9035    2.7924   -0.6366 H   0  0  0  0  0  0  0  0  0  0  0  0
   -4.9174    4.4279    0.9613 H   0  0  0  0  0  0  0  0  0  0  0  0
   -5.8291    2.9085    0.9458 H   0  0  0  0  0  0  0  0  0  0  0  0
   -4.7223    3.2578    2.2782 H   0  0  0  0  0  0  0  0  0  0  0  0
   -3.7478   -2.9048    1.0131 H   0  0  0  0  0  0  0  0  0  0  0  0
   -3.5748   -2.3341   -0.6729 H   0  0  0  0  0  0  0  0  0  0  0  0
   -1.1269   -2.2322   -0.4300 H   0  0  0  0  0  0  0  0  0  0  0  0
   -1.2477   -2.6853    1.2809 H   0  0  0  0  0  0  0  0  0  0  0  0
   -1.6840   -3.8487    0.0168 H   0  0  0  0  0  0  0  0  0  0  0  0
  1  2  1  0  0  0  0
  2  3  1  0  0  0  0
  3  4  2  0  0  0  0
  4  5  2  0  0  0  0
  4  6  2  0  0  0  0
  6  7  1  0  0  0  0
  7  8  1  0  0  0  0
  4  9  1  0  0  0  0
  9 10  1  0  0  0  0
 10 11  1  0  0  0  0
 11 12  1  0  0  0  0
 12 13  2  0  0  0  0
 12 14  2  0  0  0  0
 14 15  1  0  0  0  0
 15 16  1  0  0  0  0
 12 17  2  0  0  0  0
 17 18  1  0  0  0  0
 18 19  1  0  0  0  0
  1 20  1  0  0  0  0
  1 21  1  0  0  0  0
  1 22  1  0  0  0  0
  2 23  1  0  0  0  0
  2 24  1  0  0  0  0
  7 25  1  0  0  0  0
  7 26  1  0  0  0  0
  8 27  1  0  0  0  0
  8 28  1  0  0  0  0
  8 29  1  0  0  0  0
 10 30  1  0  0  0  0
 10 31  1  0  0  0  0
 15 32  1  0  0  0  0
 15 33  1  0  0  0  0
 16 34  1  0  0  0  0
 16 35  1  0  0  0  0
 16 36  1  0  0  0  0
 18 37  1  0  0  0  0
 18 38  1  0  0  0  0
 19 39  1  0  0  0  0
 19 40  1  0  0  0  0
 19 41  1  0  0  0  0
M  END
