 xtb: 6.7.1 (edcfbbe)
          04092507313D

 38 37  0     0  0            999 V2000
    5.4115   -1.8598   -1.2656 C   0  0  0  0  0  0  0  0  0  0  0  0
    4.5743   -0.5907   -1.2781 C   0  0  0  0  0  0  0  0  0  0  0  0
    3.1674   -0.8996   -1.2771 O   0  0  0  0  0  0  0  0  0  0  0  0
    2.5693   -1.0897   -0.1164 C   0  0  0  0  0  0  0  0  0  0  0  0
    3.1170   -1.0246    0.9595 O   0  0  0  0  0  0  0  0  0  0  0  0
    1.0955   -1.4107   -0.3007 C   0  0  0  0  0  0  0  0  0  0  0  0
    0.4064   -0.3239   -1.1285 C   0  0  0  0  0  0  0  0  0  0  0  0
    0.8917   -0.2390   -2.1043 H   0  0  0  0  0  0  0  0  0  0  0  0
    0.4581    1.0114   -0.4159 C   0  0  0  0  0  0  0  0  0  0  0  0
   -0.5451    1.6061   -0.0729 O   0  0  0  0  0  0  0  0  0  0  0  0
    1.6812    1.4203   -0.2255 O   0  0  0  0  0  0  0  0  0  0  0  0
    1.8958    2.5924    0.5937 C   0  0  0  0  0  0  0  0  0  0  0  0
    1.9234    2.2036    2.0624 C   0  0  0  0  0  0  0  0  0  0  0  0
   -1.3326   -0.7159   -1.4749 S   0  0  0  0  0  0  0  0  0  0  0  0
   -2.3014   -0.1672    0.3547 P   0  0  0  0  0  0  0  0  0  0  0  0
   -1.3974   -0.1706    2.0955 S   0  0  0  0  0  0  0  0  0  0  0  0
   -3.3004    1.0380    0.0293 O   0  0  0  0  0  0  0  0  0  0  0  0
   -3.1310    2.4254    0.3124 C   0  0  0  0  0  0  0  0  0  0  0  0
   -3.3701   -1.3494    0.4217 O   0  0  0  0  0  0  0  0  0  0  0  0
   -4.3025   -1.6437   -0.6313 C   0  0  0  0  0  0  0  0  0  0  0  0
    5.2449   -2.4082   -0.3413 H   0  0  0  0  0  0  0  0  0  0  0  0
    5.1445   -2.4935   -2.1068 H   0  0  0  0  0  0  0  0  0  0  0  0
    6.4621   -1.5975   -1.3342 H   0  0  0  0  0  0  0  0  0  0  0  0
    4.7276   -0.0222   -2.1953 H   0  0  0  0  0  0  0  0  0  0  0  0
    4.7948    0.0269   -0.4032 H   0  0  0  0  0  0  0  0  0  0  0  0
    0.6354   -1.5008    0.6862 H   0  0  0  0  0  0  0  0  0  0  0  0
    1.0071   -2.3614   -0.8285 H   0  0  0  0  0  0  0  0  0  0  0  0
    2.8592    2.9791    0.2624 H   0  0  0  0  0  0  0  0  0  0  0  0
    1.0992    3.3124    0.3908 H   0  0  0  0  0  0  0  0  0  0  0  0
    0.9539    1.8153    2.3717 H   0  0  0  0  0  0  0  0  0  0  0  0
    2.6671    1.4278    2.2298 H   0  0  0  0  0  0  0  0  0  0  0  0
    2.1652    3.0730    2.6638 H   0  0  0  0  0  0  0  0  0  0  0  0
   -4.1371    2.8220    0.4329 H   0  0  0  0  0  0  0  0  0  0  0  0
   -2.6189    2.9101   -0.5166 H   0  0  0  0  0  0  0  0  0  0  0  0
   -2.5552    2.5582    1.2281 H   0  0  0  0  0  0  0  0  0  0  0  0
   -4.8413   -2.5256   -0.2943 H   0  0  0  0  0  0  0  0  0  0  0  0
   -3.7663   -1.8515   -1.5577 H   0  0  0  0  0  0  0  0  0  0  0  0
   -4.9821   -0.8052   -0.7717 H   0  0  0  0  0  0  0  0  0  0  0  0
  1  2  1  0  0  0  0
  2  3  1  0  0  0  0
  3  4  1  0  0  0  0
  4  5  2  0  0  0  0
  4  6  1  0  0  0  0
  6  7  1  0  0  0  0
  7  8  1  0  0  0  0
  7  9  1  0  0  0  0
  9 10  2  0  0  0  0
  9 11  4  0  0  0  0
 11 12  1  0  0  0  0
 12 13  1  0  0  0  0
  7 14  1  0  0  0  0
 14 15  1  0  0  0  0
 15 16  2  0  0  0  0
 15 17  2  0  0  0  0
 17 18  1  0  0  0  0
 15 19  1  0  0  0  0
 19 20  1  0  0  0  0
  1 21  1  0  0  0  0
  1 22  1  0  0  0  0
  1 23  1  0  0  0  0
  2 24  1  0  0  0  0
  2 25  1  0  0  0  0
  6 26  1  0  0  0  0
  6 27  1  0  0  0  0
 12 28  1  0  0  0  0
 12 29  1  0  0  0  0
 13 30  1  0  0  0  0
 13 31  1  0  0  0  0
 13 32  1  0  0  0  0
 18 33  1  0  0  0  0
 18 34  1  0  0  0  0
 18 35  1  0  0  0  0
 20 36  1  0  0  0  0
 20 37  1  0  0  0  0
 20 38  1  0  0  0  0
M  END
