 xtb: 6.7.1 (edcfbbe)
          04092507313D

 38 37  0     0  0            999 V2000
    3.5369   -2.4858    1.4432 C   0  0  0  0  0  0  0  0  0  0  0  0
    2.8048   -2.9605    0.1988 C   0  0  0  0  0  0  0  0  0  0  0  0
    2.7723   -1.9191   -0.7998 O   0  0  0  0  0  0  0  0  0  0  0  0
    1.8133   -1.0342   -0.7570 C   0  0  0  0  0  0  0  0  0  0  0  0
    0.9171   -1.0438    0.0766 O   0  0  0  0  0  0  0  0  0  0  0  0
    1.9021   -0.0014   -1.8468 C   0  0  0  0  0  0  0  0  0  0  0  0
    0.8156    1.0440   -1.6616 C   0  0  0  0  0  0  0  0  0  0  0  0
    0.8185    1.7688   -2.4788 H   0  0  0  0  0  0  0  0  0  0  0  0
    0.9334    1.7916   -0.3428 C   0  0  0  0  0  0  0  0  0  0  0  0
    1.8238    1.5948    0.4562 O   0  0  0  0  0  0  0  0  0  0  0  0
   -0.0198    2.6826   -0.2156 O   0  0  0  0  0  0  0  0  0  0  0  0
   -0.0685    3.5047    0.9666 C   0  0  0  0  0  0  0  0  0  0  0  0
   -0.4440    4.9168    0.5571 C   0  0  0  0  0  0  0  0  0  0  0  0
   -0.8749    0.3255   -1.7967 S   0  0  0  0  0  0  0  0  0  0  0  0
   -1.3966   -0.5566    0.0553 P   0  0  0  0  0  0  0  0  0  0  0  0
   -1.4991   -2.4955    0.3925 S   0  0  0  0  0  0  0  0  0  0  0  0
   -0.9797    0.3472    1.3173 O   0  0  0  0  0  0  0  0  0  0  0  0
   -0.1556   -0.0855    2.3973 C   0  0  0  0  0  0  0  0  0  0  0  0
   -2.8899    0.0189   -0.1686 O   0  0  0  0  0  0  0  0  0  0  0  0
   -3.9941   -0.3682    0.6491 C   0  0  0  0  0  0  0  0  0  0  0  0
    3.5744   -3.2934    2.1665 H   0  0  0  0  0  0  0  0  0  0  0  0
    4.5482   -2.1811    1.1892 H   0  0  0  0  0  0  0  0  0  0  0  0
    3.0139   -1.6404    1.8857 H   0  0  0  0  0  0  0  0  0  0  0  0
    1.7777   -3.2549    0.4348 H   0  0  0  0  0  0  0  0  0  0  0  0
    3.3314   -3.7822   -0.2860 H   0  0  0  0  0  0  0  0  0  0  0  0
    1.7907   -0.4947   -2.8133 H   0  0  0  0  0  0  0  0  0  0  0  0
    2.8908    0.4590   -1.8020 H   0  0  0  0  0  0  0  0  0  0  0  0
   -0.8238    3.0671    1.6255 H   0  0  0  0  0  0  0  0  0  0  0  0
    0.9080    3.4647    1.4584 H   0  0  0  0  0  0  0  0  0  0  0  0
   -1.3897    4.9063    0.0235 H   0  0  0  0  0  0  0  0  0  0  0  0
   -0.5395    5.5315    1.4459 H   0  0  0  0  0  0  0  0  0  0  0  0
    0.3200    5.3393   -0.0892 H   0  0  0  0  0  0  0  0  0  0  0  0
   -0.1446   -1.1755    2.4477 H   0  0  0  0  0  0  0  0  0  0  0  0
   -0.5930    0.3333    3.3013 H   0  0  0  0  0  0  0  0  0  0  0  0
    0.8573    0.2893    2.2492 H   0  0  0  0  0  0  0  0  0  0  0  0
   -3.9646    0.1715    1.5955 H   0  0  0  0  0  0  0  0  0  0  0  0
   -3.9647   -1.4443    0.8367 H   0  0  0  0  0  0  0  0  0  0  0  0
   -4.8864   -0.1062    0.0858 H   0  0  0  0  0  0  0  0  0  0  0  0
  1  2  1  0  0  0  0
  2  3  1  0  0  0  0
  3  4  4  0  0  0  0
  4  5  2  0  0  0  0
  4  6  1  0  0  0  0
  6  7  1  0  0  0  0
  7  8  1  0  0  0  0
  7  9  1  0  0  0  0
  9 10  2  0  0  0  0
  9 11  4  0  0  0  0
 11 12  1  0  0  0  0
 12 13  1  0  0  0  0
  7 14  1  0  0  0  0
 14 15  1  0  0  0  0
 15 16  2  0  0  0  0
 15 17  1  0  0  0  0
 17 18  1  0  0  0  0
 15 19  1  0  0  0  0
 19 20  1  0  0  0  0
  1 21  1  0  0  0  0
  1 22  1  0  0  0  0
  1 23  1  0  0  0  0
  2 24  1  0  0  0  0
  2 25  1  0  0  0  0
  6 26  1  0  0  0  0
  6 27  1  0  0  0  0
 12 28  1  0  0  0  0
 12 29  1  0  0  0  0
 13 30  1  0  0  0  0
 13 31  1  0  0  0  0
 13 32  1  0  0  0  0
 18 33  1  0  0  0  0
 18 34  1  0  0  0  0
 18 35  1  0  0  0  0
 20 36  1  0  0  0  0
 20 37  1  0  0  0  0
 20 38  1  0  0  0  0
M  END
