 xtb: 6.7.1 (edcfbbe)
          04092507313D

 38 37  0     0  0            999 V2000
    2.1457   -2.9285    0.4406 C   0  0  0  0  0  0  0  0  0  0  0  0
    3.2057   -2.0980   -0.2660 C   0  0  0  0  0  0  0  0  0  0  0  0
    2.6199   -0.8967   -0.8034 O   0  0  0  0  0  0  0  0  0  0  0  0
    2.0754   -0.9464   -2.0105 C   0  0  0  0  0  0  0  0  0  0  0  0
    2.1357   -1.9010   -2.7486 O   0  0  0  0  0  0  0  0  0  0  0  0
    1.3660    0.3525   -2.3451 C   0  0  0  0  0  0  0  0  0  0  0  0
    0.3490    0.6877   -1.2566 C   0  0  0  0  0  0  0  0  0  0  0  0
   -0.1906    1.6056   -1.5085 H   0  0  0  0  0  0  0  0  0  0  0  0
    1.0049    0.8833    0.1001 C   0  0  0  0  0  0  0  0  0  0  0  0
    0.6515    0.2764    1.0910 O   0  0  0  0  0  0  0  0  0  0  0  0
    1.9430    1.7877    0.0554 O   0  0  0  0  0  0  0  0  0  0  0  0
    2.5974    2.1560    1.2877 C   0  0  0  0  0  0  0  0  0  0  0  0
    1.8572    3.3040    1.9539 C   0  0  0  0  0  0  0  0  0  0  0  0
   -0.8733   -0.6628   -1.1006 S   0  0  0  0  0  0  0  0  0  0  0  0
   -1.9389    0.0641    0.5931 P   0  0  0  0  0  0  0  0  0  0  0  0
   -1.8936    1.9926    0.9229 S   0  0  0  0  0  0  0  0  0  0  0  0
   -3.4191   -0.4546    0.2337 O   0  0  0  0  0  0  0  0  0  0  0  0
   -4.1750    0.1301   -0.8295 C   0  0  0  0  0  0  0  0  0  0  0  0
   -1.6713   -0.8384    1.8606 O   0  0  0  0  0  0  0  0  0  0  0  0
   -1.7884   -2.2734    1.8244 C   0  0  0  0  0  0  0  0  0  0  0  0
    1.6307   -2.3170    1.1792 H   0  0  0  0  0  0  0  0  0  0  0  0
    1.4193   -3.2955   -0.2819 H   0  0  0  0  0  0  0  0  0  0  0  0
    2.6138   -3.7727    0.9352 H   0  0  0  0  0  0  0  0  0  0  0  0
    3.6627   -2.6592   -1.0857 H   0  0  0  0  0  0  0  0  0  0  0  0
    3.9680   -1.7469    0.4297 H   0  0  0  0  0  0  0  0  0  0  0  0
    0.8687    0.2348   -3.3071 H   0  0  0  0  0  0  0  0  0  0  0  0
    2.0986    1.1595   -2.3969 H   0  0  0  0  0  0  0  0  0  0  0  0
    2.6300    1.2800    1.9404 H   0  0  0  0  0  0  0  0  0  0  0  0
    3.6030    2.4487    0.9861 H   0  0  0  0  0  0  0  0  0  0  0  0
    2.3680    3.5801    2.8702 H   0  0  0  0  0  0  0  0  0  0  0  0
    1.8179    4.1625    1.2895 H   0  0  0  0  0  0  0  0  0  0  0  0
    0.8375    3.0058    2.1930 H   0  0  0  0  0  0  0  0  0  0  0  0
   -5.1877   -0.2466   -0.7116 H   0  0  0  0  0  0  0  0  0  0  0  0
   -3.7607   -0.1747   -1.7906 H   0  0  0  0  0  0  0  0  0  0  0  0
   -4.1608    1.2180   -0.7444 H   0  0  0  0  0  0  0  0  0  0  0  0
   -1.4080   -2.6124    2.7845 H   0  0  0  0  0  0  0  0  0  0  0  0
   -1.1883   -2.6782    1.0090 H   0  0  0  0  0  0  0  0  0  0  0  0
   -2.8319   -2.5552    1.6955 H   0  0  0  0  0  0  0  0  0  0  0  0
  1  2  1  0  0  0  0
  2  3  1  0  0  0  0
  3  4  1  0  0  0  0
  4  5  2  0  0  0  0
  4  6  1  0  0  0  0
  6  7  1  0  0  0  0
  7  8  1  0  0  0  0
  7  9  1  0  0  0  0
  9 10  2  0  0  0  0
  9 11  4  0  0  0  0
 11 12  1  0  0  0  0
 12 13  1  0  0  0  0
  7 14  1  0  0  0  0
 14 15  1  0  0  0  0
 15 16  2  0  0  0  0
 15 17  1  0  0  0  0
 17 18  1  0  0  0  0
 15 19  2  0  0  0  0
 19 20  1  0  0  0  0
  1 21  1  0  0  0  0
  1 22  1  0  0  0  0
  1 23  1  0  0  0  0
  2 24  1  0  0  0  0
  2 25  1  0  0  0  0
  6 26  1  0  0  0  0
  6 27  1  0  0  0  0
 12 28  1  0  0  0  0
 12 29  1  0  0  0  0
 13 30  1  0  0  0  0
 13 31  1  0  0  0  0
 13 32  1  0  0  0  0
 18 33  1  0  0  0  0
 18 34  1  0  0  0  0
 18 35  1  0  0  0  0
 20 36  1  0  0  0  0
 20 37  1  0  0  0  0
 20 38  1  0  0  0  0
M  END
