  31
 
 C          1.8079464677        2.1822329889        1.4335129192
 C          1.9703953183        1.3626432063        0.1551436258
 C          2.8284047018        0.0930667673        0.3893628901
 C          1.8553279853       -1.0208329568        0.1534754475
 C          2.0066322870       -2.3882659043        0.2097865659
 C          0.9096825208       -3.1944952139       -0.0671935284
 C         -0.3177951184       -2.6363200147       -0.3765678798
 C         -0.4728865615       -1.2571798524       -0.4363646523
 C          0.6270833152       -0.4513613526       -0.1808644495
 O          0.6459178168        0.8978881039       -0.2362764550
 O         -1.7130901888       -0.7150311134       -0.7828340253
 C         -2.2678643137        0.1756147208        0.0867978654
 O         -1.8459084674        0.3756243026        1.2104044357
 N         -3.3375263557        0.7518076416       -0.4668038593
 C         -4.1704600655        1.7053152363        0.2299015499
 C          2.5134173644        2.2201098773       -0.9851862866
 H          2.7758360784        2.5342151463        1.7771490623
 H          1.1603961616        3.0346449713        1.2455246371
 H          1.3461882133        1.5703552663        2.2058228042
 H          3.6658198600        0.0440996768       -0.3076287124
 H          3.2242008375        0.0657977992        1.4048480346
 H          2.9598345877       -2.8230738128        0.4640746760
 H          1.0078761705       -4.2672382662       -0.0317052398
 H         -1.1756381698       -3.2569203875       -0.5799177835
 H         -3.5864985945        0.4798392550       -1.4054442996
 H         -4.2007617440        2.6453346068       -0.3186670892
 H         -3.7340999608        1.8712116079        1.2125137435
 H         -5.1813042837        1.3147538087        0.3425579411
 H          2.5958882636        1.6256824342       -1.8921674448
 H          3.4912345890        2.6091505102       -0.7187245115
 H          1.8378048993        3.0497293127       -1.1757940423
          31
        -48.53585885
 C          1.5166602166        2.5336002840        1.1537122424
 C          1.7648150841        1.6547141234       -0.0707102607
 C          2.7969704071        0.5371309122        0.2260804830
 C          1.9737634695       -0.7117069906        0.1475755743
 C          2.3058171242       -2.0341599132        0.3389914404
 C          1.3191334680       -3.0003651058        0.1870646126
 C          0.0225558399       -2.6420646873       -0.1361326593
 C         -0.3148313602       -1.3088728168       -0.3320690721
 C          0.6732514764       -0.3446180951       -0.1970322544
 O          0.5110461984        0.9827517513       -0.3866986842
 O         -1.6222863471       -0.9706490167       -0.6909431874
 C         -2.2770615948       -0.0844351380        0.1115713476
 O         -1.8662898432        0.2725893462        1.1996436283
 N         -3.4243486747        0.2903144234       -0.4590616465
 C         -4.3652976675        1.1871682524        0.1723978700
 C          2.1557528569        2.4949640347       -1.2833688160
 H          2.4305269519        3.0469793827        1.4366792162
 H          0.7453523118        3.2663921584        0.9318164782
 H          1.1709294657        1.9192325802        1.9825883336
 H          3.5982454470        0.5286338279       -0.5140594769
 H          3.2419067493        0.6619897310        1.2131018252
 H          3.3136363904       -2.3127343658        0.6018051035
 H          1.5592284979       -4.0411792739        0.3309836158
 H         -0.7497461472       -3.3864562431       -0.2449284321
 H         -3.6445442273       -0.0892967314       -1.3672294616
 H         -5.3196576895        0.6851473964        0.3277962744
 H         -4.5134113672        2.0714140949       -0.4462243123
 H         -3.9492464418        1.4821812238        1.1336419541
 H          3.0795869902        3.0271284105       -1.0791474826
 H          1.3699187549        3.2127445527       -1.5024454798
 H          2.2916212429        1.8549958586       -2.1520129616
