 xtb: 6.7.1 (edcfbbe)
          04092514013D

 41 40  0     0  0            999 V2000
    2.5756   -1.3148    3.2513 C   0  0  0  0  0  0  0  0  0  0  0  0
    1.4443   -1.2814    2.2439 C   0  0  0  0  0  0  0  0  0  0  0  0
    1.4996   -0.0753    1.4649 O   0  0  0  0  0  0  0  0  0  0  0  0
    2.2715    0.0635    0.0880 P   0  0  0  0  0  0  0  0  0  0  0  0
    3.0615   -1.6016   -0.5904 S   0  0  0  0  0  0  0  0  0  0  0  0
    3.2491    1.2463    0.4850 O   0  0  0  0  0  0  0  0  0  0  0  0
    3.8831    2.1658   -0.4245 C   0  0  0  0  0  0  0  0  0  0  0  0
    4.7958    1.4802   -1.4213 C   0  0  0  0  0  0  0  0  0  0  0  0
    0.8621    1.0169   -1.1834 S   0  0  0  0  0  0  0  0  0  0  0  0
    0.1261   -0.4833   -1.8744 C   0  0  0  0  0  0  0  0  0  0  0  0
   -0.7063   -1.5218   -0.6368 S   0  0  0  0  0  0  0  0  0  0  0  0
   -2.2365   -0.1724   -0.0920 P   0  0  0  0  0  0  0  0  0  0  0  0
   -2.8818    1.0586   -1.4772 S   0  0  0  0  0  0  0  0  0  0  0  0
   -1.6340    0.4688    1.2207 O   0  0  0  0  0  0  0  0  0  0  0  0
   -2.0604    1.7471    1.7489 C   0  0  0  0  0  0  0  0  0  0  0  0
   -0.9879    2.7914    1.5120 C   0  0  0  0  0  0  0  0  0  0  0  0
   -3.3425   -1.1301    0.5365 O   0  0  0  0  0  0  0  0  0  0  0  0
   -4.2384   -1.9144   -0.2805 C   0  0  0  0  0  0  0  0  0  0  0  0
   -5.6168   -1.2828   -0.3173 C   0  0  0  0  0  0  0  0  0  0  0  0
    3.5307   -1.3494    2.7297 H   0  0  0  0  0  0  0  0  0  0  0  0
    2.5488   -0.4269    3.8766 H   0  0  0  0  0  0  0  0  0  0  0  0
    2.4773   -2.1993    3.8728 H   0  0  0  0  0  0  0  0  0  0  0  0
    0.4663   -1.2537    2.7282 H   0  0  0  0  0  0  0  0  0  0  0  0
    1.4949   -2.1467    1.5736 H   0  0  0  0  0  0  0  0  0  0  0  0
    3.1036    2.7338   -0.9401 H   0  0  0  0  0  0  0  0  0  0  0  0
    4.4455    2.8278    0.2366 H   0  0  0  0  0  0  0  0  0  0  0  0
    5.3083    2.2339   -2.0113 H   0  0  0  0  0  0  0  0  0  0  0  0
    5.5313    0.8676   -0.9056 H   0  0  0  0  0  0  0  0  0  0  0  0
    4.2195    0.8406   -2.0876 H   0  0  0  0  0  0  0  0  0  0  0  0
    0.9034   -1.1087   -2.3130 H   0  0  0  0  0  0  0  0  0  0  0  0
   -0.5940   -0.1535   -2.6224 H   0  0  0  0  0  0  0  0  0  0  0  0
   -3.0020    2.0384    1.2747 H   0  0  0  0  0  0  0  0  0  0  0  0
   -2.2237    1.5732    2.8138 H   0  0  0  0  0  0  0  0  0  0  0  0
   -0.8786    2.9824    0.4462 H   0  0  0  0  0  0  0  0  0  0  0  0
   -1.2685    3.7127    2.0124 H   0  0  0  0  0  0  0  0  0  0  0  0
   -0.0352    2.4418    1.9027 H   0  0  0  0  0  0  0  0  0  0  0  0
   -3.8249   -2.0051   -1.2888 H   0  0  0  0  0  0  0  0  0  0  0  0
   -4.2637   -2.8983    0.1915 H   0  0  0  0  0  0  0  0  0  0  0  0
   -5.5733   -0.3115   -0.8050 H   0  0  0  0  0  0  0  0  0  0  0  0
   -6.2886   -1.9286   -0.8739 H   0  0  0  0  0  0  0  0  0  0  0  0
   -5.9965   -1.1544    0.6924 H   0  0  0  0  0  0  0  0  0  0  0  0
  1  2  1  0  0  0  0
  2  3  1  0  0  0  0
  3  4  2  0  0  0  0
  4  5  2  0  0  0  0
  4  6  2  0  0  0  0
  6  7  1  0  0  0  0
  7  8  1  0  0  0  0
  4  9  1  0  0  0  0
  9 10  1  0  0  0  0
 10 11  1  0  0  0  0
 11 12  1  0  0  0  0
 12 13  2  0  0  0  0
 12 14  2  0  0  0  0
 14 15  1  0  0  0  0
 15 16  1  0  0  0  0
 12 17  2  0  0  0  0
 17 18  1  0  0  0  0
 18 19  1  0  0  0  0
  1 20  1  0  0  0  0
  1 21  1  0  0  0  0
  1 22  1  0  0  0  0
  2 23  1  0  0  0  0
  2 24  1  0  0  0  0
  7 25  1  0  0  0  0
  7 26  1  0  0  0  0
  8 27  1  0  0  0  0
  8 28  1  0  0  0  0
  8 29  1  0  0  0  0
 10 30  1  0  0  0  0
 10 31  1  0  0  0  0
 15 32  1  0  0  0  0
 15 33  1  0  0  0  0
 16 34  1  0  0  0  0
 16 35  1  0  0  0  0
 16 36  1  0  0  0  0
 18 37  1  0  0  0  0
 18 38  1  0  0  0  0
 19 39  1  0  0  0  0
 19 40  1  0  0  0  0
 19 41  1  0  0  0  0
M  END
