 xtb: 6.7.1 (edcfbbe)
          04092505213D

 41 40  0     0  0            999 V2000
    3.8655   -1.5341   -2.5374 C   0  0  0  0  0  0  0  0  0  0  0  0
    4.1673   -1.9131   -1.1020 C   0  0  0  0  0  0  0  0  0  0  0  0
    2.9970   -1.8536   -0.2683 O   0  0  0  0  0  0  0  0  0  0  0  0
    2.2772   -0.4856    0.0945 P   0  0  0  0  0  0  0  0  0  0  0  0
    3.4709    1.0392    0.4259 S   0  0  0  0  0  0  0  0  0  0  0  0
    1.3492   -0.9175    1.3027 O   0  0  0  0  0  0  0  0  0  0  0  0
    1.7720   -0.7861    2.6759 C   0  0  0  0  0  0  0  0  0  0  0  0
    2.9086   -1.7299    3.0068 C   0  0  0  0  0  0  0  0  0  0  0  0
    0.8156   -0.2404   -1.4163 S   0  0  0  0  0  0  0  0  0  0  0  0
    0.4066    1.4735   -1.0018 C   0  0  0  0  0  0  0  0  0  0  0  0
   -0.5551    1.6285    0.5289 S   0  0  0  0  0  0  0  0  0  0  0  0
   -2.3480    0.8346   -0.2759 P   0  0  0  0  0  0  0  0  0  0  0  0
   -2.8073    1.3500   -2.0999 S   0  0  0  0  0  0  0  0  0  0  0  0
   -3.3221    1.3281    0.8871 O   0  0  0  0  0  0  0  0  0  0  0  0
   -4.6988    1.6707    0.6296 C   0  0  0  0  0  0  0  0  0  0  0  0
   -5.5461    0.4297    0.4309 C   0  0  0  0  0  0  0  0  0  0  0  0
   -2.2445   -0.7450   -0.1452 O   0  0  0  0  0  0  0  0  0  0  0  0
   -2.0423   -1.4116    1.1227 C   0  0  0  0  0  0  0  0  0  0  0  0
   -1.4261   -2.7666    0.8432 C   0  0  0  0  0  0  0  0  0  0  0  0
    3.5965   -0.4801   -2.5964 H   0  0  0  0  0  0  0  0  0  0  0  0
    4.7455   -1.7069   -3.1486 H   0  0  0  0  0  0  0  0  0  0  0  0
    3.0375   -2.1261   -2.9193 H   0  0  0  0  0  0  0  0  0  0  0  0
    4.9260   -1.2454   -0.6811 H   0  0  0  0  0  0  0  0  0  0  0  0
    4.4958   -2.9499   -1.0191 H   0  0  0  0  0  0  0  0  0  0  0  0
    2.0660    0.2540    2.8492 H   0  0  0  0  0  0  0  0  0  0  0  0
    0.8744   -1.0164    3.2513 H   0  0  0  0  0  0  0  0  0  0  0  0
    3.7993   -1.4461    2.4474 H   0  0  0  0  0  0  0  0  0  0  0  0
    3.1270   -1.6723    4.0685 H   0  0  0  0  0  0  0  0  0  0  0  0
    2.6395   -2.7498    2.7455 H   0  0  0  0  0  0  0  0  0  0  0  0
   -0.1750    1.8707   -1.8339 H   0  0  0  0  0  0  0  0  0  0  0  0
    1.3265    2.0400   -0.8536 H   0  0  0  0  0  0  0  0  0  0  0  0
   -5.0025    2.2365    1.5112 H   0  0  0  0  0  0  0  0  0  0  0  0
   -4.7406    2.3105   -0.2570 H   0  0  0  0  0  0  0  0  0  0  0  0
   -6.5758    0.7215    0.2503 H   0  0  0  0  0  0  0  0  0  0  0  0
   -5.1803   -0.1285   -0.4311 H   0  0  0  0  0  0  0  0  0  0  0  0
   -5.5028   -0.2064    1.3112 H   0  0  0  0  0  0  0  0  0  0  0  0
   -1.3897   -0.7921    1.7460 H   0  0  0  0  0  0  0  0  0  0  0  0
   -3.0163   -1.5065    1.6078 H   0  0  0  0  0  0  0  0  0  0  0  0
   -2.0561   -3.3231    0.1554 H   0  0  0  0  0  0  0  0  0  0  0  0
   -0.4422   -2.6466    0.3965 H   0  0  0  0  0  0  0  0  0  0  0  0
   -1.3327   -3.3158    1.7746 H   0  0  0  0  0  0  0  0  0  0  0  0
  1  2  1  0  0  0  0
  2  3  1  0  0  0  0
  3  4  2  0  0  0  0
  4  5  2  0  0  0  0
  4  6  2  0  0  0  0
  6  7  1  0  0  0  0
  7  8  1  0  0  0  0
  4  9  1  0  0  0  0
  9 10  1  0  0  0  0
 10 11  1  0  0  0  0
 11 12  1  0  0  0  0
 12 13  2  0  0  0  0
 12 14  1  0  0  0  0
 14 15  1  0  0  0  0
 15 16  1  0  0  0  0
 12 17  2  0  0  0  0
 17 18  1  0  0  0  0
 18 19  1  0  0  0  0
  1 20  1  0  0  0  0
  1 21  1  0  0  0  0
  1 22  1  0  0  0  0
  2 23  1  0  0  0  0
  2 24  1  0  0  0  0
  7 25  1  0  0  0  0
  7 26  1  0  0  0  0
  8 27  1  0  0  0  0
  8 28  1  0  0  0  0
  8 29  1  0  0  0  0
 10 30  1  0  0  0  0
 10 31  1  0  0  0  0
 15 32  1  0  0  0  0
 15 33  1  0  0  0  0
 16 34  1  0  0  0  0
 16 35  1  0  0  0  0
 16 36  1  0  0  0  0
 18 37  1  0  0  0  0
 18 38  1  0  0  0  0
 19 39  1  0  0  0  0
 19 40  1  0  0  0  0
 19 41  1  0  0  0  0
M  END
