 xtb: 6.7.1 (edcfbbe)
          04092505203D

 41 40  0     0  0            999 V2000
    2.8160   -0.4331   -2.7372 C   0  0  0  0  0  0  0  0  0  0  0  0
    1.6283    0.2502   -2.0952 C   0  0  0  0  0  0  0  0  0  0  0  0
    1.1436   -0.4778   -0.9491 O   0  0  0  0  0  0  0  0  0  0  0  0
    2.0022   -0.5623    0.3910 P   0  0  0  0  0  0  0  0  0  0  0  0
    3.1347    0.9877    0.8075 S   0  0  0  0  0  0  0  0  0  0  0  0
    2.8004   -1.9164    0.1571 O   0  0  0  0  0  0  0  0  0  0  0  0
    3.9617   -2.2713    0.9289 C   0  0  0  0  0  0  0  0  0  0  0  0
    3.6132   -2.5965    2.3670 C   0  0  0  0  0  0  0  0  0  0  0  0
    0.5193   -1.1506    1.7591 S   0  0  0  0  0  0  0  0  0  0  0  0
   -0.2404    0.4662    2.1354 C   0  0  0  0  0  0  0  0  0  0  0  0
   -0.3419    1.6081    0.7318 S   0  0  0  0  0  0  0  0  0  0  0  0
   -1.8794    0.6911   -0.4112 P   0  0  0  0  0  0  0  0  0  0  0  0
   -1.9186    1.2492   -2.2868 S   0  0  0  0  0  0  0  0  0  0  0  0
   -3.1906    0.9589    0.4592 O   0  0  0  0  0  0  0  0  0  0  0  0
   -3.7596    2.2746    0.5873 C   0  0  0  0  0  0  0  0  0  0  0  0
   -4.8316    2.5082   -0.4597 C   0  0  0  0  0  0  0  0  0  0  0  0
   -1.6865   -0.8471   -0.1228 O   0  0  0  0  0  0  0  0  0  0  0  0
   -1.9822   -1.8578   -1.1053 C   0  0  0  0  0  0  0  0  0  0  0  0
   -3.4767   -2.0550   -1.2400 C   0  0  0  0  0  0  0  0  0  0  0  0
    2.5769   -1.4696   -2.9603 H   0  0  0  0  0  0  0  0  0  0  0  0
    3.0726    0.0870   -3.6547 H   0  0  0  0  0  0  0  0  0  0  0  0
    3.6699   -0.4031   -2.0613 H   0  0  0  0  0  0  0  0  0  0  0  0
    0.7698    0.2960   -2.7687 H   0  0  0  0  0  0  0  0  0  0  0  0
    1.8872    1.2656   -1.7747 H   0  0  0  0  0  0  0  0  0  0  0  0
    4.3687   -3.1374    0.4055 H   0  0  0  0  0  0  0  0  0  0  0  0
    4.6724   -1.4396    0.8852 H   0  0  0  0  0  0  0  0  0  0  0  0
    2.8246   -3.3437    2.4051 H   0  0  0  0  0  0  0  0  0  0  0  0
    4.4955   -2.9748    2.8731 H   0  0  0  0  0  0  0  0  0  0  0  0
    3.2699   -1.6982    2.8783 H   0  0  0  0  0  0  0  0  0  0  0  0
    0.3677    0.9807    2.8770 H   0  0  0  0  0  0  0  0  0  0  0  0
   -1.2367    0.2530    2.5162 H   0  0  0  0  0  0  0  0  0  0  0  0
   -4.1796    2.2984    1.5947 H   0  0  0  0  0  0  0  0  0  0  0  0
   -2.9620    3.0211    0.5065 H   0  0  0  0  0  0  0  0  0  0  0  0
   -4.3994    2.4730   -1.4574 H   0  0  0  0  0  0  0  0  0  0  0  0
   -5.6002    1.7443   -0.3830 H   0  0  0  0  0  0  0  0  0  0  0  0
   -5.2782    3.4847   -0.3029 H   0  0  0  0  0  0  0  0  0  0  0  0
   -1.5400   -1.5608   -2.0615 H   0  0  0  0  0  0  0  0  0  0  0  0
   -1.4794   -2.7486   -0.7257 H   0  0  0  0  0  0  0  0  0  0  0  0
   -3.9308   -1.1423   -1.6244 H   0  0  0  0  0  0  0  0  0  0  0  0
   -3.6741   -2.8682   -1.9311 H   0  0  0  0  0  0  0  0  0  0  0  0
   -3.9129   -2.2852   -0.2718 H   0  0  0  0  0  0  0  0  0  0  0  0
  1  2  1  0  0  0  0
  2  3  1  0  0  0  0
  3  4  1  0  0  0  0
  4  5  2  0  0  0  0
  4  6  2  0  0  0  0
  6  7  1  0  0  0  0
  7  8  1  0  0  0  0
  4  9  1  0  0  0  0
  9 10  1  0  0  0  0
 10 11  1  0  0  0  0
 11 12  1  0  0  0  0
 12 13  2  0  0  0  0
 12 14  1  0  0  0  0
 14 15  1  0  0  0  0
 15 16  1  0  0  0  0
 12 17  2  0  0  0  0
 17 18  1  0  0  0  0
 18 19  1  0  0  0  0
  1 20  1  0  0  0  0
  1 21  1  0  0  0  0
  1 22  1  0  0  0  0
  2 23  1  0  0  0  0
  2 24  1  0  0  0  0
  7 25  1  0  0  0  0
  7 26  1  0  0  0  0
  8 27  1  0  0  0  0
  8 28  1  0  0  0  0
  8 29  1  0  0  0  0
 10 30  1  0  0  0  0
 10 31  1  0  0  0  0
 15 32  1  0  0  0  0
 15 33  1  0  0  0  0
 16 34  1  0  0  0  0
 16 35  1  0  0  0  0
 16 36  1  0  0  0  0
 18 37  1  0  0  0  0
 18 38  1  0  0  0  0
 19 39  1  0  0  0  0
 19 40  1  0  0  0  0
 19 41  1  0  0  0  0
M  END
