 xtb: 6.7.1 (edcfbbe)
          04092505213D

 41 40  0     0  0            999 V2000
    1.4101   -3.2964   -0.2547 C   0  0  0  0  0  0  0  0  0  0  0  0
    2.7308   -2.6210   -0.5659 C   0  0  0  0  0  0  0  0  0  0  0  0
    2.9898   -1.5272    0.3282 O   0  0  0  0  0  0  0  0  0  0  0  0
    2.2396   -0.1312    0.1943 P   0  0  0  0  0  0  0  0  0  0  0  0
    2.0287    0.4871   -1.6593 S   0  0  0  0  0  0  0  0  0  0  0  0
    3.0980    0.8247    1.1230 O   0  0  0  0  0  0  0  0  0  0  0  0
    4.2120    1.5889    0.6173 C   0  0  0  0  0  0  0  0  0  0  0  0
    5.3843    0.7015    0.2559 C   0  0  0  0  0  0  0  0  0  0  0  0
    0.5697   -0.3661    1.4608 S   0  0  0  0  0  0  0  0  0  0  0  0
   -0.0646    1.3275    1.4244 C   0  0  0  0  0  0  0  0  0  0  0  0
   -1.0142    1.7816   -0.0694 S   0  0  0  0  0  0  0  0  0  0  0  0
   -2.3776    0.1520   -0.1894 P   0  0  0  0  0  0  0  0  0  0  0  0
   -4.0840    0.5278   -1.0718 S   0  0  0  0  0  0  0  0  0  0  0  0
   -2.4795   -0.4056    1.2938 O   0  0  0  0  0  0  0  0  0  0  0  0
   -3.6247   -0.1317    2.1247 C   0  0  0  0  0  0  0  0  0  0  0  0
   -3.5768    1.2609    2.7222 C   0  0  0  0  0  0  0  0  0  0  0  0
   -1.5205   -1.0274   -0.8336 O   0  0  0  0  0  0  0  0  0  0  0  0
   -1.7377   -1.4538   -2.1921 C   0  0  0  0  0  0  0  0  0  0  0  0
   -1.2255   -0.4412   -3.1963 C   0  0  0  0  0  0  0  0  0  0  0  0
    1.3864   -3.6155    0.7842 H   0  0  0  0  0  0  0  0  0  0  0  0
    0.5854   -2.6039   -0.4209 H   0  0  0  0  0  0  0  0  0  0  0  0
    1.2852   -4.1600   -0.9004 H   0  0  0  0  0  0  0  0  0  0  0  0
    2.7404   -2.2407   -1.5934 H   0  0  0  0  0  0  0  0  0  0  0  0
    3.5731   -3.2972   -0.4131 H   0  0  0  0  0  0  0  0  0  0  0  0
    3.8760    2.1586   -0.2554 H   0  0  0  0  0  0  0  0  0  0  0  0
    4.4559    2.2685    1.4350 H   0  0  0  0  0  0  0  0  0  0  0  0
    6.2353    1.3200   -0.0115 H   0  0  0  0  0  0  0  0  0  0  0  0
    5.6469    0.0659    1.0974 H   0  0  0  0  0  0  0  0  0  0  0  0
    5.1240    0.0715   -0.5935 H   0  0  0  0  0  0  0  0  0  0  0  0
    0.7606    2.0349    1.4667 H   0  0  0  0  0  0  0  0  0  0  0  0
   -0.7050    1.4273    2.2961 H   0  0  0  0  0  0  0  0  0  0  0  0
   -4.5292   -0.2540    1.5203 H   0  0  0  0  0  0  0  0  0  0  0  0
   -3.5834   -0.9041    2.8933 H   0  0  0  0  0  0  0  0  0  0  0  0
   -2.7127    1.3748    3.3713 H   0  0  0  0  0  0  0  0  0  0  0  0
   -3.5316    2.0036    1.9258 H   0  0  0  0  0  0  0  0  0  0  0  0
   -4.4779    1.4283    3.3039 H   0  0  0  0  0  0  0  0  0  0  0  0
   -1.1995   -2.3999   -2.2642 H   0  0  0  0  0  0  0  0  0  0  0  0
   -2.8093   -1.6236   -2.3359 H   0  0  0  0  0  0  0  0  0  0  0  0
   -0.1724   -0.2280   -3.0282 H   0  0  0  0  0  0  0  0  0  0  0  0
   -1.3552   -0.8317   -4.2003 H   0  0  0  0  0  0  0  0  0  0  0  0
   -1.7852    0.4894   -3.1028 H   0  0  0  0  0  0  0  0  0  0  0  0
  1  2  1  0  0  0  0
  2  3  1  0  0  0  0
  3  4  2  0  0  0  0
  4  5  2  0  0  0  0
  4  6  2  0  0  0  0
  6  7  1  0  0  0  0
  7  8  1  0  0  0  0
  4  9  1  0  0  0  0
  9 10  1  0  0  0  0
 10 11  1  0  0  0  0
 11 12  1  0  0  0  0
 12 13  2  0  0  0  0
 12 14  2  0  0  0  0
 14 15  1  0  0  0  0
 15 16  1  0  0  0  0
 12 17  1  0  0  0  0
 17 18  1  0  0  0  0
 18 19  1  0  0  0  0
  1 20  1  0  0  0  0
  1 21  1  0  0  0  0
  1 22  1  0  0  0  0
  2 23  1  0  0  0  0
  2 24  1  0  0  0  0
  7 25  1  0  0  0  0
  7 26  1  0  0  0  0
  8 27  1  0  0  0  0
  8 28  1  0  0  0  0
  8 29  1  0  0  0  0
 10 30  1  0  0  0  0
 10 31  1  0  0  0  0
 15 32  1  0  0  0  0
 15 33  1  0  0  0  0
 16 34  1  0  0  0  0
 16 35  1  0  0  0  0
 16 36  1  0  0  0  0
 18 37  1  0  0  0  0
 18 38  1  0  0  0  0
 19 39  1  0  0  0  0
 19 40  1  0  0  0  0
 19 41  1  0  0  0  0
M  END
