 xtb: 6.7.1 (edcfbbe)
          04092507313D

 38 37  0     0  0            999 V2000
    3.1426   -3.2347    0.3705 C   0  0  0  0  0  0  0  0  0  0  0  0
    2.8887   -1.8019    0.8096 C   0  0  0  0  0  0  0  0  0  0  0  0
    2.6768   -0.9380   -0.3244 O   0  0  0  0  0  0  0  0  0  0  0  0
    1.4894   -0.8935   -0.8727 C   0  0  0  0  0  0  0  0  0  0  0  0
    0.5324   -1.5499   -0.4942 O   0  0  0  0  0  0  0  0  0  0  0  0
    1.4112    0.0836   -2.0205 C   0  0  0  0  0  0  0  0  0  0  0  0
    0.2332    1.0312   -1.8146 C   0  0  0  0  0  0  0  0  0  0  0  0
    0.1470    1.7132   -2.6657 H   0  0  0  0  0  0  0  0  0  0  0  0
    0.3195    1.8706   -0.5488 C   0  0  0  0  0  0  0  0  0  0  0  0
   -0.6517    2.4095   -0.0587 O   0  0  0  0  0  0  0  0  0  0  0  0
    1.5406    1.9559   -0.0922 O   0  0  0  0  0  0  0  0  0  0  0  0
    1.7662    2.7112    1.1166 C   0  0  0  0  0  0  0  0  0  0  0  0
    3.2598    2.9214    1.2597 C   0  0  0  0  0  0  0  0  0  0  0  0
   -1.3925    0.1794   -1.8043 S   0  0  0  0  0  0  0  0  0  0  0  0
   -1.6656   -0.4560    0.2075 P   0  0  0  0  0  0  0  0  0  0  0  0
   -0.5260   -0.0846    1.7725 S   0  0  0  0  0  0  0  0  0  0  0  0
   -3.1524    0.1027    0.4538 O   0  0  0  0  0  0  0  0  0  0  0  0
   -3.4569    1.4802    0.6595 C   0  0  0  0  0  0  0  0  0  0  0  0
   -2.1567   -1.9556    0.0560 O   0  0  0  0  0  0  0  0  0  0  0  0
   -1.5185   -3.1090    0.6048 C   0  0  0  0  0  0  0  0  0  0  0  0
    3.9864   -3.2721   -0.3129 H   0  0  0  0  0  0  0  0  0  0  0  0
    3.3600   -3.8414    1.2432 H   0  0  0  0  0  0  0  0  0  0  0  0
    2.2633   -3.6378   -0.1266 H   0  0  0  0  0  0  0  0  0  0  0  0
    3.7607   -1.3796    1.3084 H   0  0  0  0  0  0  0  0  0  0  0  0
    2.0147   -1.7374    1.4648 H   0  0  0  0  0  0  0  0  0  0  0  0
    1.2479   -0.4757   -2.9431 H   0  0  0  0  0  0  0  0  0  0  0  0
    2.3434    0.6435   -2.0779 H   0  0  0  0  0  0  0  0  0  0  0  0
    1.2179    3.6549    1.0412 H   0  0  0  0  0  0  0  0  0  0  0  0
    1.3505    2.1334    1.9490 H   0  0  0  0  0  0  0  0  0  0  0  0
    3.7661    1.9613    1.2831 H   0  0  0  0  0  0  0  0  0  0  0  0
    3.6393    3.5018    0.4243 H   0  0  0  0  0  0  0  0  0  0  0  0
    3.4561    3.4526    2.1847 H   0  0  0  0  0  0  0  0  0  0  0  0
   -4.5027    1.5051    0.9550 H   0  0  0  0  0  0  0  0  0  0  0  0
   -3.3000    2.0463   -0.2591 H   0  0  0  0  0  0  0  0  0  0  0  0
   -2.8245    1.8960    1.4459 H   0  0  0  0  0  0  0  0  0  0  0  0
   -2.3198   -3.7721    0.9234 H   0  0  0  0  0  0  0  0  0  0  0  0
   -0.8935   -2.8305    1.4549 H   0  0  0  0  0  0  0  0  0  0  0  0
   -0.9072   -3.5772   -0.1643 H   0  0  0  0  0  0  0  0  0  0  0  0
  1  2  1  0  0  0  0
  2  3  1  0  0  0  0
  3  4  4  0  0  0  0
  4  5  2  0  0  0  0
  4  6  1  0  0  0  0
  6  7  1  0  0  0  0
  7  8  1  0  0  0  0
  7  9  1  0  0  0  0
  9 10  2  0  0  0  0
  9 11  4  0  0  0  0
 11 12  1  0  0  0  0
 12 13  1  0  0  0  0
  7 14  1  0  0  0  0
 14 15  1  0  0  0  0
 15 16  2  0  0  0  0
 15 17  1  0  0  0  0
 17 18  1  0  0  0  0
 15 19  2  0  0  0  0
 19 20  1  0  0  0  0
  1 21  1  0  0  0  0
  1 22  1  0  0  0  0
  1 23  1  0  0  0  0
  2 24  1  0  0  0  0
  2 25  1  0  0  0  0
  6 26  1  0  0  0  0
  6 27  1  0  0  0  0
 12 28  1  0  0  0  0
 12 29  1  0  0  0  0
 13 30  1  0  0  0  0
 13 31  1  0  0  0  0
 13 32  1  0  0  0  0
 18 33  1  0  0  0  0
 18 34  1  0  0  0  0
 18 35  1  0  0  0  0
 20 36  1  0  0  0  0
 20 37  1  0  0  0  0
 20 38  1  0  0  0  0
M  END
