 xtb: 6.7.1 (edcfbbe)
          04092507313D

 38 37  0     0  0            999 V2000
    1.8184   -3.2805   -0.0157 C   0  0  0  0  0  0  0  0  0  0  0  0
    2.9165   -2.2488   -0.2191 C   0  0  0  0  0  0  0  0  0  0  0  0
    2.3584   -1.0121   -0.7007 O   0  0  0  0  0  0  0  0  0  0  0  0
    2.1989   -0.8579   -2.0082 C   0  0  0  0  0  0  0  0  0  0  0  0
    2.5967   -1.6403   -2.8388 O   0  0  0  0  0  0  0  0  0  0  0  0
    1.4773    0.4344   -2.3368 C   0  0  0  0  0  0  0  0  0  0  0  0
    0.3942    0.7488   -1.3104 C   0  0  0  0  0  0  0  0  0  0  0  0
   -0.1354    1.6658   -1.5862 H   0  0  0  0  0  0  0  0  0  0  0  0
    0.9566    0.9346    0.0838 C   0  0  0  0  0  0  0  0  0  0  0  0
    0.4622    0.4016    1.0600 O   0  0  0  0  0  0  0  0  0  0  0  0
    1.9692    1.7512    0.1066 O   0  0  0  0  0  0  0  0  0  0  0  0
    2.5285    2.1108    1.3891 C   0  0  0  0  0  0  0  0  0  0  0  0
    1.7708    3.2856    1.9853 C   0  0  0  0  0  0  0  0  0  0  0  0
   -0.8334   -0.6106   -1.2444 S   0  0  0  0  0  0  0  0  0  0  0  0
   -1.9115   -0.0788    0.5044 P   0  0  0  0  0  0  0  0  0  0  0  0
   -2.1232    1.8256    0.9570 S   0  0  0  0  0  0  0  0  0  0  0  0
   -3.3244   -0.7298    0.0974 O   0  0  0  0  0  0  0  0  0  0  0  0
   -4.1269   -0.1718   -0.9440 C   0  0  0  0  0  0  0  0  0  0  0  0
   -1.6599   -1.1360    1.6611 O   0  0  0  0  0  0  0  0  0  0  0  0
   -1.1209   -0.8393    2.9509 C   0  0  0  0  0  0  0  0  0  0  0  0
    1.0428   -2.8802    0.6344 H   0  0  0  0  0  0  0  0  0  0  0  0
    1.3680   -3.5401   -0.9714 H   0  0  0  0  0  0  0  0  0  0  0  0
    2.2379   -4.1737    0.4349 H   0  0  0  0  0  0  0  0  0  0  0  0
    3.6555   -2.6021   -0.9434 H   0  0  0  0  0  0  0  0  0  0  0  0
    3.3995   -1.9881    0.7232 H   0  0  0  0  0  0  0  0  0  0  0  0
    1.0458    0.3360   -3.3323 H   0  0  0  0  0  0  0  0  0  0  0  0
    2.2071    1.2471   -2.3415 H   0  0  0  0  0  0  0  0  0  0  0  0
    2.4821    1.2399    2.0474 H   0  0  0  0  0  0  0  0  0  0  0  0
    3.5636    2.3711    1.1695 H   0  0  0  0  0  0  0  0  0  0  0  0
    0.7239    3.0250    2.1323 H   0  0  0  0  0  0  0  0  0  0  0  0
    2.2063    3.5467    2.9439 H   0  0  0  0  0  0  0  0  0  0  0  0
    1.8234    4.1437    1.3213 H   0  0  0  0  0  0  0  0  0  0  0  0
   -5.0953   -0.6582   -0.8605 H   0  0  0  0  0  0  0  0  0  0  0  0
   -3.6792   -0.3764   -1.9171 H   0  0  0  0  0  0  0  0  0  0  0  0
   -4.2304    0.9061   -0.8011 H   0  0  0  0  0  0  0  0  0  0  0  0
   -1.6957   -1.4311    3.6602 H   0  0  0  0  0  0  0  0  0  0  0  0
   -1.2224    0.2242    3.1725 H   0  0  0  0  0  0  0  0  0  0  0  0
   -0.0691   -1.1183    2.9736 H   0  0  0  0  0  0  0  0  0  0  0  0
  1  2  1  0  0  0  0
  2  3  1  0  0  0  0
  3  4  1  0  0  0  0
  4  5  2  0  0  0  0
  4  6  1  0  0  0  0
  6  7  1  0  0  0  0
  7  8  1  0  0  0  0
  7  9  1  0  0  0  0
  9 10  2  0  0  0  0
  9 11  4  0  0  0  0
 11 12  1  0  0  0  0
 12 13  1  0  0  0  0
  7 14  1  0  0  0  0
 14 15  1  0  0  0  0
 15 16  2  0  0  0  0
 15 17  1  0  0  0  0
 17 18  1  0  0  0  0
 15 19  2  0  0  0  0
 19 20  1  0  0  0  0
  1 21  1  0  0  0  0
  1 22  1  0  0  0  0
  1 23  1  0  0  0  0
  2 24  1  0  0  0  0
  2 25  1  0  0  0  0
  6 26  1  0  0  0  0
  6 27  1  0  0  0  0
 12 28  1  0  0  0  0
 12 29  1  0  0  0  0
 13 30  1  0  0  0  0
 13 31  1  0  0  0  0
 13 32  1  0  0  0  0
 18 33  1  0  0  0  0
 18 34  1  0  0  0  0
 18 35  1  0  0  0  0
 20 36  1  0  0  0  0
 20 37  1  0  0  0  0
 20 38  1  0  0  0  0
M  END
