 xtb: 6.7.1 (edcfbbe)
          04092507313D

 38 37  0     0  0            999 V2000
    4.3179   -1.9862    0.8878 C   0  0  0  0  0  0  0  0  0  0  0  0
    2.8392   -1.9927    0.5566 C   0  0  0  0  0  0  0  0  0  0  0  0
    2.6084   -1.0191   -0.4819 O   0  0  0  0  0  0  0  0  0  0  0  0
    1.4374   -1.0023   -1.0743 C   0  0  0  0  0  0  0  0  0  0  0  0
    0.5155   -1.7460   -0.7936 O   0  0  0  0  0  0  0  0  0  0  0  0
    1.3545    0.0594   -2.1504 C   0  0  0  0  0  0  0  0  0  0  0  0
    0.2190    1.0405   -1.8441 C   0  0  0  0  0  0  0  0  0  0  0  0
    0.1258    1.7573   -2.6647 H   0  0  0  0  0  0  0  0  0  0  0  0
    0.4476    1.7990   -0.5495 C   0  0  0  0  0  0  0  0  0  0  0  0
   -0.4201    1.8952    0.2996 O   0  0  0  0  0  0  0  0  0  0  0  0
    1.6409    2.3113   -0.4769 O   0  0  0  0  0  0  0  0  0  0  0  0
    2.0443    2.9791    0.7403 C   0  0  0  0  0  0  0  0  0  0  0  0
    2.6749    1.9810    1.6966 C   0  0  0  0  0  0  0  0  0  0  0  0
   -1.4160    0.2402   -1.7328 S   0  0  0  0  0  0  0  0  0  0  0  0
   -1.5910   -0.2959    0.3134 P   0  0  0  0  0  0  0  0  0  0  0  0
   -0.3478   -0.5620    1.8072 S   0  0  0  0  0  0  0  0  0  0  0  0
   -2.7836    0.6041    0.9001 O   0  0  0  0  0  0  0  0  0  0  0  0
   -3.9096    1.0037    0.1073 C   0  0  0  0  0  0  0  0  0  0  0  0
   -2.3456   -1.6698   -0.0981 O   0  0  0  0  0  0  0  0  0  0  0  0
   -2.7209   -2.6241    0.8928 C   0  0  0  0  0  0  0  0  0  0  0  0
    4.6131   -1.0104    1.2605 H   0  0  0  0  0  0  0  0  0  0  0  0
    4.5124   -2.7311    1.6518 H   0  0  0  0  0  0  0  0  0  0  0  0
    4.9000   -2.2190    0.0012 H   0  0  0  0  0  0  0  0  0  0  0  0
    2.2223   -1.7239    1.4202 H   0  0  0  0  0  0  0  0  0  0  0  0
    2.5050   -2.9682    0.1895 H   0  0  0  0  0  0  0  0  0  0  0  0
    1.1386   -0.4325   -3.0996 H   0  0  0  0  0  0  0  0  0  0  0  0
    2.3019    0.5947   -2.2020 H   0  0  0  0  0  0  0  0  0  0  0  0
    2.7641    3.7275    0.4091 H   0  0  0  0  0  0  0  0  0  0  0  0
    1.1689    3.4537    1.1902 H   0  0  0  0  0  0  0  0  0  0  0  0
    1.9403    1.2387    2.0071 H   0  0  0  0  0  0  0  0  0  0  0  0
    3.5037    1.4734    1.2110 H   0  0  0  0  0  0  0  0  0  0  0  0
    3.0358    2.5031    2.5761 H   0  0  0  0  0  0  0  0  0  0  0  0
   -3.6604    1.9123   -0.4397 H   0  0  0  0  0  0  0  0  0  0  0  0
   -4.7130    1.1924    0.8156 H   0  0  0  0  0  0  0  0  0  0  0  0
   -4.1888    0.2136   -0.5919 H   0  0  0  0  0  0  0  0  0  0  0  0
   -3.3781   -2.1690    1.6367 H   0  0  0  0  0  0  0  0  0  0  0  0
   -1.8304   -3.0143    1.3880 H   0  0  0  0  0  0  0  0  0  0  0  0
   -3.2361   -3.4157    0.3546 H   0  0  0  0  0  0  0  0  0  0  0  0
  1  2  1  0  0  0  0
  2  3  1  0  0  0  0
  3  4  4  0  0  0  0
  4  5  2  0  0  0  0
  4  6  1  0  0  0  0
  6  7  1  0  0  0  0
  7  8  1  0  0  0  0
  7  9  1  0  0  0  0
  9 10  2  0  0  0  0
  9 11  4  0  0  0  0
 11 12  1  0  0  0  0
 12 13  1  0  0  0  0
  7 14  1  0  0  0  0
 14 15  1  0  0  0  0
 15 16  2  0  0  0  0
 15 17  1  0  0  0  0
 17 18  1  0  0  0  0
 15 19  1  0  0  0  0
 19 20  1  0  0  0  0
  1 21  1  0  0  0  0
  1 22  1  0  0  0  0
  1 23  1  0  0  0  0
  2 24  1  0  0  0  0
  2 25  1  0  0  0  0
  6 26  1  0  0  0  0
  6 27  1  0  0  0  0
 12 28  1  0  0  0  0
 12 29  1  0  0  0  0
 13 30  1  0  0  0  0
 13 31  1  0  0  0  0
 13 32  1  0  0  0  0
 18 33  1  0  0  0  0
 18 34  1  0  0  0  0
 18 35  1  0  0  0  0
 20 36  1  0  0  0  0
 20 37  1  0  0  0  0
 20 38  1  0  0  0  0
M  END
