 xtb: 6.7.1 (edcfbbe)
          04092507313D

 38 37  0     0  0            999 V2000
    3.7684   -2.2205    1.3639 C   0  0  0  0  0  0  0  0  0  0  0  0
    2.9242   -2.8406    0.2626 C   0  0  0  0  0  0  0  0  0  0  0  0
    2.7648   -1.9202   -0.8367 O   0  0  0  0  0  0  0  0  0  0  0  0
    1.7967   -1.0422   -0.7848 C   0  0  0  0  0  0  0  0  0  0  0  0
    1.0015   -0.9564    0.1389 O   0  0  0  0  0  0  0  0  0  0  0  0
    1.7423   -0.1451   -1.9930 C   0  0  0  0  0  0  0  0  0  0  0  0
    0.6548    0.9003   -1.8142 C   0  0  0  0  0  0  0  0  0  0  0  0
    0.5649    1.5313   -2.7021 H   0  0  0  0  0  0  0  0  0  0  0  0
    0.8939    1.7976   -0.6093 C   0  0  0  0  0  0  0  0  0  0  0  0
    1.8772    1.7150    0.0940 O   0  0  0  0  0  0  0  0  0  0  0  0
   -0.0656    2.6820   -0.4712 O   0  0  0  0  0  0  0  0  0  0  0  0
    0.0208    3.6551    0.5911 C   0  0  0  0  0  0  0  0  0  0  0  0
   -1.3507    3.8381    1.2127 C   0  0  0  0  0  0  0  0  0  0  0  0
   -1.0202    0.1492   -1.7212 S   0  0  0  0  0  0  0  0  0  0  0  0
   -1.3870   -0.6470    0.2191 P   0  0  0  0  0  0  0  0  0  0  0  0
   -1.2501   -2.5513    0.6686 S   0  0  0  0  0  0  0  0  0  0  0  0
   -0.9470    0.4398    1.3189 O   0  0  0  0  0  0  0  0  0  0  0  0
   -0.0343    0.1963    2.3866 C   0  0  0  0  0  0  0  0  0  0  0  0
   -2.9729   -0.3986    0.1872 O   0  0  0  0  0  0  0  0  0  0  0  0
   -3.6085    0.8866    0.0981 C   0  0  0  0  0  0  0  0  0  0  0  0
    4.7407   -1.9329    0.9738 H   0  0  0  0  0  0  0  0  0  0  0  0
    3.2727   -1.3378    1.7630 H   0  0  0  0  0  0  0  0  0  0  0  0
    3.8991   -2.9418    2.1635 H   0  0  0  0  0  0  0  0  0  0  0  0
    1.9332   -3.1187    0.6346 H   0  0  0  0  0  0  0  0  0  0  0  0
    3.4172   -3.7056   -0.1803 H   0  0  0  0  0  0  0  0  0  0  0  0
    1.5447   -0.7520   -2.8778 H   0  0  0  0  0  0  0  0  0  0  0  0
    2.7175    0.3314   -2.1084 H   0  0  0  0  0  0  0  0  0  0  0  0
    0.7568    3.3093    1.3221 H   0  0  0  0  0  0  0  0  0  0  0  0
    0.3732    4.5831    0.1329 H   0  0  0  0  0  0  0  0  0  0  0  0
   -1.6933    2.9017    1.6443 H   0  0  0  0  0  0  0  0  0  0  0  0
   -1.2898    4.5894    1.9930 H   0  0  0  0  0  0  0  0  0  0  0  0
   -2.0629    4.1598    0.4588 H   0  0  0  0  0  0  0  0  0  0  0  0
   -0.4333    0.7184    3.2540 H   0  0  0  0  0  0  0  0  0  0  0  0
    0.9487    0.5845    2.1187 H   0  0  0  0  0  0  0  0  0  0  0  0
    0.0378   -0.8738    2.5852 H   0  0  0  0  0  0  0  0  0  0  0  0
   -3.7414    1.2889    1.1012 H   0  0  0  0  0  0  0  0  0  0  0  0
   -4.5726    0.7046   -0.3709 H   0  0  0  0  0  0  0  0  0  0  0  0
   -3.0147    1.5707   -0.5074 H   0  0  0  0  0  0  0  0  0  0  0  0
  1  2  1  0  0  0  0
  2  3  1  0  0  0  0
  3  4  4  0  0  0  0
  4  5  2  0  0  0  0
  4  6  1  0  0  0  0
  6  7  1  0  0  0  0
  7  8  1  0  0  0  0
  7  9  1  0  0  0  0
  9 10  2  0  0  0  0
  9 11  4  0  0  0  0
 11 12  1  0  0  0  0
 12 13  1  0  0  0  0
  7 14  1  0  0  0  0
 14 15  1  0  0  0  0
 15 16  2  0  0  0  0
 15 17  1  0  0  0  0
 17 18  1  0  0  0  0
 15 19  1  0  0  0  0
 19 20  1  0  0  0  0
  1 21  1  0  0  0  0
  1 22  1  0  0  0  0
  1 23  1  0  0  0  0
  2 24  1  0  0  0  0
  2 25  1  0  0  0  0
  6 26  1  0  0  0  0
  6 27  1  0  0  0  0
 12 28  1  0  0  0  0
 12 29  1  0  0  0  0
 13 30  1  0  0  0  0
 13 31  1  0  0  0  0
 13 32  1  0  0  0  0
 18 33  1  0  0  0  0
 18 34  1  0  0  0  0
 18 35  1  0  0  0  0
 20 36  1  0  0  0  0
 20 37  1  0  0  0  0
 20 38  1  0  0  0  0
M  END
