38
 xtb: 6.7.1 (edcfbbe)
C            2.77849833788354       -4.55281823108959       -1.43462522752473
C            3.84321953769502       -3.48167278240370       -1.40130165857503
O            3.46943503093739       -2.40864511426572       -0.47238596828736
C            2.64302400496781       -1.46407293532364       -0.93968178454097
O            2.19275392615301       -1.43624184583425       -2.07030675430871
C            2.38777677248057       -0.40521498623880        0.10677054323607
C            1.02637783824469        0.27217963718745       -0.07351517949172
H            0.90918501504482        0.59512718768350       -1.11026989732121
C            0.94915549538822        1.48544597549211        0.84354537070060
O            0.51630168543705        1.48478631309637        1.97866252150233
O            1.48083338327659        2.54420475089690        0.22426523397366
C            1.52544995290832        3.80244910536819        0.98236611392666
C            0.20350077139352        4.52578952440402        0.88354282172781
S           -0.28496322911391       -0.97271080875738        0.30168216267314
P           -2.03794310633555        0.16127706696491       -0.08202857455031
S           -1.87414160504228        1.51945295512187       -1.45822049173073
O           -3.11220179524074       -1.02190245828822       -0.28633695037677
C           -3.14184381943046       -1.77474889754766       -1.53278556468878
O           -2.54533798354049        0.79658899896415        1.30031638142812
C           -2.68889717841285       -0.01182200082447        2.50649905267726
H            2.61222599313569       -4.96553511109961       -0.43549798162640
H            1.83318379346259       -4.16439671297384       -1.82264069185822
H            3.11239355609934       -5.36366459916963       -2.08973555432717
H            4.02395452512098       -3.04383722073111       -2.38589208009194
H            4.78262119739073       -3.86028993567206       -0.99529118094673
H            3.16954029937047        0.35409153974377       -0.03011661529930
H            2.50784576644102       -0.81751727407693        1.11145575973748
H            1.80091241607996        3.57565100885907        2.01475950632034
H            2.33054721205001        4.36307203789061        0.50511335329378
H            0.28451372300838        5.48311846037333        1.40806611505470
H           -0.05183563174458        4.72648408746334       -0.16087113640016
H           -0.60305509590498        3.94807690395441        1.34342501765020
H           -3.40035899653714       -1.11023948948889       -2.36078989872956
H           -3.91462965966314       -2.53125764428022       -1.39857834264322
H           -2.17581937317908       -2.25379288013674       -1.71443450720444
H           -1.72554998267587       -0.44806288043967        2.78326603994855
H           -3.43699152881433       -0.79259897448780        2.35157826174971
H           -3.02083805695544        0.68087673418269        3.27958556485727
