41
 xtb: 6.7.1 (edcfbbe)
C            1.13322553690425       -0.83416331698006       -3.24966886447357
C            1.86015005829702        0.04715524330204       -2.26761562439421
O            2.69719390760879       -0.81287475402561       -1.41480134019939
P            2.69775632491403       -0.54706400223211        0.17456858439162
S            3.13582789376789        1.26130982752043        0.74843429402463
O            3.72750661737321       -1.72643596616149        0.53102423101891
C            3.78430043993543       -2.40931003665494        1.83141469139600
C            4.12773225382157       -1.49455513393310        2.98041522005339
S            0.78441448961956       -1.24944508899673        0.78227523902309
C            0.09966453108054        0.14724408389241        1.78143251458286
S           -1.72411099915930        0.15774658726441        1.66950359889718
P           -1.98917279292824        1.08914947898930       -0.23492526193199
S           -0.90185646586487        2.66734715176647       -0.54864525826374
O           -3.58989514118982        1.24178014713873       -0.24225999286837
C           -4.26362816822774        2.29546228006437        0.53434518463213
C           -5.70449157625290        2.31597599352031        0.09780281960971
O           -1.75890291798069       -0.00810274461082       -1.37402056919433
C           -2.48641738788469       -1.29273728856543       -1.39542932929380
C           -3.35676560269093       -1.33579913794075       -2.62453935437235
H            0.52345874039680       -0.20657601304196       -3.90725965219267
H            1.83748835973480       -1.39967175609496       -3.86672460431797
H            0.47285945505662       -1.53443447668691       -2.72904676347745
H            1.15758060330452        0.61268185223265       -1.64526347357972
H            2.53481792886456        0.75218374354351       -2.76111915185579
H            2.82640099118380       -2.91375528538917        1.98880187106330
H            4.55864617844641       -3.16306550927618        1.67702009282712
H            3.32653798585047       -0.77931869786880        3.18704262688335
H            4.26956267420166       -2.11382279286256        3.87235608276682
H            5.05466760680874       -0.94680749458577        2.78946739535047
H            0.51097422273634        1.09441005265736        1.41893678347742
H            0.34476768220500        0.00676003236665        2.83662528356443
H           -4.16490924485821        2.05364383126983        1.59724438728266
H           -3.76166401551797        3.24585780163234        0.32939091650455
H           -6.23457353788260        3.08286870116086        0.67075358075093
H           -5.78701521525166        2.55904189265613       -0.96512082298759
H           -6.18513422609121        1.35169550675039        0.28454991606983
H           -1.71091639417817       -2.06236895141132       -1.41093054201064
H           -3.07285090711905       -1.40054401027148       -0.47882213882750
H           -3.85152160339815       -2.31119441233582       -2.67353693080299
H           -4.12489981978165       -0.55821573198695       -2.58800560012943
H           -2.75846496305929       -1.20741399725312       -3.53100763853158
