 xtb: 6.7.1 (edcfbbe)
          04092505213D

 41 40  0     0  0            999 V2000
    2.5227   -1.6244   -2.4814 C   0  0  0  0  0  0  0  0  0  0  0  0
    3.7590   -1.2986   -1.6689 C   0  0  0  0  0  0  0  0  0  0  0  0
    3.5140   -1.3986   -0.2548 O   0  0  0  0  0  0  0  0  0  0  0  0
    2.5178   -0.4186    0.4997 P   0  0  0  0  0  0  0  0  0  0  0  0
    2.5588    1.4528   -0.1075 S   0  0  0  0  0  0  0  0  0  0  0  0
    2.9027   -0.6297    2.0243 O   0  0  0  0  0  0  0  0  0  0  0  0
    3.9205    0.1559    2.6780 C   0  0  0  0  0  0  0  0  0  0  0  0
    5.3060   -0.1785    2.1670 C   0  0  0  0  0  0  0  0  0  0  0  0
    0.6836   -1.4586    0.5209 S   0  0  0  0  0  0  0  0  0  0  0  0
   -0.3336   -0.0762    1.1112 C   0  0  0  0  0  0  0  0  0  0  0  0
   -0.8231    1.0685   -0.2205 S   0  0  0  0  0  0  0  0  0  0  0  0
   -2.8375    0.3970   -0.4148 P   0  0  0  0  0  0  0  0  0  0  0  0
   -3.9142    1.2712   -1.7952 S   0  0  0  0  0  0  0  0  0  0  0  0
   -3.4170    0.4636    1.0671 O   0  0  0  0  0  0  0  0  0  0  0  0
   -4.1221    1.6222    1.5441 C   0  0  0  0  0  0  0  0  0  0  0  0
   -3.1977    2.8025    1.7711 C   0  0  0  0  0  0  0  0  0  0  0  0
   -2.7413   -1.1861   -0.4844 O   0  0  0  0  0  0  0  0  0  0  0  0
   -2.7659   -1.8859   -1.7412 C   0  0  0  0  0  0  0  0  0  0  0  0
   -1.4833   -1.6921   -2.5242 C   0  0  0  0  0  0  0  0  0  0  0  0
    2.1260   -2.5945   -2.1923 H   0  0  0  0  0  0  0  0  0  0  0  0
    1.7601   -0.8638   -2.3134 H   0  0  0  0  0  0  0  0  0  0  0  0
    2.7752   -1.6373   -3.5367 H   0  0  0  0  0  0  0  0  0  0  0  0
    4.1046   -0.2835   -1.8892 H   0  0  0  0  0  0  0  0  0  0  0  0
    4.5624   -2.0142   -1.8479 H   0  0  0  0  0  0  0  0  0  0  0  0
    3.6966    1.2158    2.5178 H   0  0  0  0  0  0  0  0  0  0  0  0
    3.8063   -0.0951    3.7335 H   0  0  0  0  0  0  0  0  0  0  0  0
    5.4040    0.1364    1.1292 H   0  0  0  0  0  0  0  0  0  0  0  0
    6.0463    0.3433    2.7655 H   0  0  0  0  0  0  0  0  0  0  0  0
    5.4794   -1.2497    2.2275 H   0  0  0  0  0  0  0  0  0  0  0  0
    0.2379    0.4989    1.8360 H   0  0  0  0  0  0  0  0  0  0  0  0
   -1.2278   -0.5038    1.5582 H   0  0  0  0  0  0  0  0  0  0  0  0
   -4.8995    1.8799    0.8176 H   0  0  0  0  0  0  0  0  0  0  0  0
   -4.5822    1.2857    2.4743 H   0  0  0  0  0  0  0  0  0  0  0  0
   -2.3889    2.5309    2.4448 H   0  0  0  0  0  0  0  0  0  0  0  0
   -2.7713    3.1301    0.8233 H   0  0  0  0  0  0  0  0  0  0  0  0
   -3.7634    3.6219    2.2030 H   0  0  0  0  0  0  0  0  0  0  0  0
   -2.9097   -2.9290   -1.4572 H   0  0  0  0  0  0  0  0  0  0  0  0
   -3.6265   -1.5327   -2.3185 H   0  0  0  0  0  0  0  0  0  0  0  0
   -0.6304   -2.0096   -1.9297 H   0  0  0  0  0  0  0  0  0  0  0  0
   -1.5257   -2.2780   -3.4365 H   0  0  0  0  0  0  0  0  0  0  0  0
   -1.3649   -0.6402   -2.7855 H   0  0  0  0  0  0  0  0  0  0  0  0
  1  2  1  0  0  0  0
  2  3  1  0  0  0  0
  3  4  2  0  0  0  0
  4  5  2  0  0  0  0
  4  6  2  0  0  0  0
  6  7  1  0  0  0  0
  7  8  1  0  0  0  0
  4  9  1  0  0  0  0
  9 10  1  0  0  0  0
 10 11  1  0  0  0  0
 11 12  1  0  0  0  0
 12 13  2  0  0  0  0
 12 14  2  0  0  0  0
 14 15  1  0  0  0  0
 15 16  1  0  0  0  0
 12 17  2  0  0  0  0
 17 18  1  0  0  0  0
 18 19  1  0  0  0  0
  1 20  1  0  0  0  0
  1 21  1  0  0  0  0
  1 22  1  0  0  0  0
  2 23  1  0  0  0  0
  2 24  1  0  0  0  0
  7 25  1  0  0  0  0
  7 26  1  0  0  0  0
  8 27  1  0  0  0  0
  8 28  1  0  0  0  0
  8 29  1  0  0  0  0
 10 30  1  0  0  0  0
 10 31  1  0  0  0  0
 15 32  1  0  0  0  0
 15 33  1  0  0  0  0
 16 34  1  0  0  0  0
 16 35  1  0  0  0  0
 16 36  1  0  0  0  0
 18 37  1  0  0  0  0
 18 38  1  0  0  0  0
 19 39  1  0  0  0  0
 19 40  1  0  0  0  0
 19 41  1  0  0  0  0
M  END
