 xtb: 6.7.1 (edcfbbe)
          04092507313D

 38 37  0     0  0            999 V2000
    5.2222   -1.8388   -1.6435 C   0  0  0  0  0  0  0  0  0  0  0  0
    4.5046   -0.5953   -1.1429 C   0  0  0  0  0  0  0  0  0  0  0  0
    3.0752   -0.7554   -1.2163 O   0  0  0  0  0  0  0  0  0  0  0  0
    2.4642   -1.3603   -0.2120 C   0  0  0  0  0  0  0  0  0  0  0  0
    3.0239   -1.7934    0.7680 O   0  0  0  0  0  0  0  0  0  0  0  0
    0.9695   -1.4782   -0.4500 C   0  0  0  0  0  0  0  0  0  0  0  0
    0.3882   -0.1844   -1.0082 C   0  0  0  0  0  0  0  0  0  0  0  0
    0.9076    0.0833   -1.9344 H   0  0  0  0  0  0  0  0  0  0  0  0
    0.5049    0.9915   -0.0570 C   0  0  0  0  0  0  0  0  0  0  0  0
   -0.3610    1.8376    0.0437 O   0  0  0  0  0  0  0  0  0  0  0  0
    1.6390    0.9887    0.5931 O   0  0  0  0  0  0  0  0  0  0  0  0
    1.8858    2.0502    1.5390 C   0  0  0  0  0  0  0  0  0  0  0  0
    2.4498    3.2796    0.8471 C   0  0  0  0  0  0  0  0  0  0  0  0
   -1.3606   -0.3535   -1.4895 S   0  0  0  0  0  0  0  0  0  0  0  0
   -2.3441    0.0275    0.3547 P   0  0  0  0  0  0  0  0  0  0  0  0
   -1.3942   -0.3701    2.0229 S   0  0  0  0  0  0  0  0  0  0  0  0
   -3.0252    1.4503    0.3476 O   0  0  0  0  0  0  0  0  0  0  0  0
   -3.7407    1.9669   -0.7917 C   0  0  0  0  0  0  0  0  0  0  0  0
   -3.6537   -0.8805    0.1552 O   0  0  0  0  0  0  0  0  0  0  0  0
   -3.5834   -2.3094    0.1691 C   0  0  0  0  0  0  0  0  0  0  0  0
    6.2925   -1.6612   -1.6396 H   0  0  0  0  0  0  0  0  0  0  0  0
    5.0025   -2.6826   -0.9935 H   0  0  0  0  0  0  0  0  0  0  0  0
    4.9015   -2.0756   -2.6542 H   0  0  0  0  0  0  0  0  0  0  0  0
    4.7146    0.2663   -1.7769 H   0  0  0  0  0  0  0  0  0  0  0  0
    4.7770   -0.3828   -0.1054 H   0  0  0  0  0  0  0  0  0  0  0  0
    0.4973   -1.7469    0.4973 H   0  0  0  0  0  0  0  0  0  0  0  0
    0.8035   -2.2804   -1.1717 H   0  0  0  0  0  0  0  0  0  0  0  0
    0.9455    2.2795    2.0491 H   0  0  0  0  0  0  0  0  0  0  0  0
    2.5975    1.6172    2.2424 H   0  0  0  0  0  0  0  0  0  0  0  0
    3.3539    3.0218    0.3024 H   0  0  0  0  0  0  0  0  0  0  0  0
    1.7179    3.6882    0.1541 H   0  0  0  0  0  0  0  0  0  0  0  0
    2.6837    4.0299    1.5949 H   0  0  0  0  0  0  0  0  0  0  0  0
   -4.5186    1.2680   -1.0941 H   0  0  0  0  0  0  0  0  0  0  0  0
   -3.0442    2.1401   -1.6117 H   0  0  0  0  0  0  0  0  0  0  0  0
   -4.1707    2.9050   -0.4509 H   0  0  0  0  0  0  0  0  0  0  0  0
   -4.6114   -2.6523    0.2529 H   0  0  0  0  0  0  0  0  0  0  0  0
   -2.9992   -2.6475    1.0265 H   0  0  0  0  0  0  0  0  0  0  0  0
   -3.1324   -2.6667   -0.7564 H   0  0  0  0  0  0  0  0  0  0  0  0
  1  2  1  0  0  0  0
  2  3  1  0  0  0  0
  3  4  1  0  0  0  0
  4  5  2  0  0  0  0
  4  6  1  0  0  0  0
  6  7  1  0  0  0  0
  7  8  1  0  0  0  0
  7  9  1  0  0  0  0
  9 10  2  0  0  0  0
  9 11  4  0  0  0  0
 11 12  1  0  0  0  0
 12 13  1  0  0  0  0
  7 14  1  0  0  0  0
 14 15  1  0  0  0  0
 15 16  2  0  0  0  0
 15 17  2  0  0  0  0
 17 18  1  0  0  0  0
 15 19  1  0  0  0  0
 19 20  1  0  0  0  0
  1 21  1  0  0  0  0
  1 22  1  0  0  0  0
  1 23  1  0  0  0  0
  2 24  1  0  0  0  0
  2 25  1  0  0  0  0
  6 26  1  0  0  0  0
  6 27  1  0  0  0  0
 12 28  1  0  0  0  0
 12 29  1  0  0  0  0
 13 30  1  0  0  0  0
 13 31  1  0  0  0  0
 13 32  1  0  0  0  0
 18 33  1  0  0  0  0
 18 34  1  0  0  0  0
 18 35  1  0  0  0  0
 20 36  1  0  0  0  0
 20 37  1  0  0  0  0
 20 38  1  0  0  0  0
M  END
