 xtb: 6.7.1 (edcfbbe)
          04092505203D

 41 40  0     0  0            999 V2000
    5.7536    0.7908   -0.9065 C   0  0  0  0  0  0  0  0  0  0  0  0
    4.3468    0.3398   -1.2427 C   0  0  0  0  0  0  0  0  0  0  0  0
    3.5953    0.2888   -0.0122 O   0  0  0  0  0  0  0  0  0  0  0  0
    2.0150    0.1531   -0.0159 P   0  0  0  0  0  0  0  0  0  0  0  0
    1.0477    1.5082   -1.0515 S   0  0  0  0  0  0  0  0  0  0  0  0
    1.6553    0.2102    1.5149 O   0  0  0  0  0  0  0  0  0  0  0  0
    2.2592   -0.6602    2.5105 C   0  0  0  0  0  0  0  0  0  0  0  0
    3.3922    0.0509    3.2196 C   0  0  0  0  0  0  0  0  0  0  0  0
    1.7405   -1.8632   -0.6421 S   0  0  0  0  0  0  0  0  0  0  0  0
   -0.0246   -1.7779   -1.0117 C   0  0  0  0  0  0  0  0  0  0  0  0
   -1.0157   -1.2822    0.4315 S   0  0  0  0  0  0  0  0  0  0  0  0
   -2.2093    0.2718   -0.4101 P   0  0  0  0  0  0  0  0  0  0  0  0
   -2.1707    0.4049   -2.3621 S   0  0  0  0  0  0  0  0  0  0  0  0
   -1.8942    1.6281    0.3154 O   0  0  0  0  0  0  0  0  0  0  0  0
   -1.4690    1.8137    1.6869 C   0  0  0  0  0  0  0  0  0  0  0  0
   -2.3607    1.1084    2.6847 C   0  0  0  0  0  0  0  0  0  0  0  0
   -3.6532   -0.0639    0.1691 O   0  0  0  0  0  0  0  0  0  0  0  0
   -4.4256   -1.1700   -0.3345 C   0  0  0  0  0  0  0  0  0  0  0  0
   -5.8754   -0.9376    0.0404 C   0  0  0  0  0  0  0  0  0  0  0  0
    6.3397    0.8356   -1.8184 H   0  0  0  0  0  0  0  0  0  0  0  0
    5.7305    1.7751   -0.4473 H   0  0  0  0  0  0  0  0  0  0  0  0
    6.2142    0.0887   -0.2177 H   0  0  0  0  0  0  0  0  0  0  0  0
    4.3419   -0.6587   -1.6880 H   0  0  0  0  0  0  0  0  0  0  0  0
    3.8504    1.0383   -1.9243 H   0  0  0  0  0  0  0  0  0  0  0  0
    1.4418   -0.8991    3.1931 H   0  0  0  0  0  0  0  0  0  0  0  0
    2.6068   -1.5719    2.0175 H   0  0  0  0  0  0  0  0  0  0  0  0
    4.1849    0.2901    2.5159 H   0  0  0  0  0  0  0  0  0  0  0  0
    3.0331    0.9726    3.6688 H   0  0  0  0  0  0  0  0  0  0  0  0
    3.7850   -0.5975    3.9964 H   0  0  0  0  0  0  0  0  0  0  0  0
   -0.3180   -2.7818   -1.3085 H   0  0  0  0  0  0  0  0  0  0  0  0
   -0.2095   -1.0595   -1.8160 H   0  0  0  0  0  0  0  0  0  0  0  0
   -0.4326    1.4718    1.7652 H   0  0  0  0  0  0  0  0  0  0  0  0
   -1.5011    2.8978    1.8072 H   0  0  0  0  0  0  0  0  0  0  0  0
   -2.2920    0.0290    2.5573 H   0  0  0  0  0  0  0  0  0  0  0  0
   -2.0390    1.3678    3.6887 H   0  0  0  0  0  0  0  0  0  0  0  0
   -3.3939    1.4154    2.5446 H   0  0  0  0  0  0  0  0  0  0  0  0
   -4.2958   -1.2208   -1.4211 H   0  0  0  0  0  0  0  0  0  0  0  0
   -4.0382   -2.0874    0.1173 H   0  0  0  0  0  0  0  0  0  0  0  0
   -6.4745   -1.7648   -0.3257 H   0  0  0  0  0  0  0  0  0  0  0  0
   -5.9746   -0.8696    1.1197 H   0  0  0  0  0  0  0  0  0  0  0  0
   -6.2306   -0.0126   -0.4054 H   0  0  0  0  0  0  0  0  0  0  0  0
  1  2  1  0  0  0  0
  2  3  1  0  0  0  0
  3  4  2  0  0  0  0
  4  5  2  0  0  0  0
  4  6  2  0  0  0  0
  6  7  1  0  0  0  0
  7  8  1  0  0  0  0
  4  9  1  0  0  0  0
  9 10  1  0  0  0  0
 10 11  1  0  0  0  0
 11 12  1  0  0  0  0
 12 13  2  0  0  0  0
 12 14  2  0  0  0  0
 14 15  1  0  0  0  0
 15 16  1  0  0  0  0
 12 17  2  0  0  0  0
 17 18  1  0  0  0  0
 18 19  1  0  0  0  0
  1 20  1  0  0  0  0
  1 21  1  0  0  0  0
  1 22  1  0  0  0  0
  2 23  1  0  0  0  0
  2 24  1  0  0  0  0
  7 25  1  0  0  0  0
  7 26  1  0  0  0  0
  8 27  1  0  0  0  0
  8 28  1  0  0  0  0
  8 29  1  0  0  0  0
 10 30  1  0  0  0  0
 10 31  1  0  0  0  0
 15 32  1  0  0  0  0
 15 33  1  0  0  0  0
 16 34  1  0  0  0  0
 16 35  1  0  0  0  0
 16 36  1  0  0  0  0
 18 37  1  0  0  0  0
 18 38  1  0  0  0  0
 19 39  1  0  0  0  0
 19 40  1  0  0  0  0
 19 41  1  0  0  0  0
M  END
