19
CONF7
C -2.5982076572 0.5658486001 0.0771803859
C -1.2377482353 -0.0764458605 0.0446430866
C -1.1351705184 -1.4709364715 0.1005905126
C 0.1066374454 -2.0988568981 0.0709516939
C 1.2685081117 -1.3429042003 -0.0104756941
C 1.1683532176 0.0452887897 -0.0617594795
C -0.0703179166 0.7043354812 -0.0420483914
C -0.0985229275 2.2062880573 -0.1106801016
O 2.3561586898 0.7459958717 -0.1338645066
H -2.7868246802 1.1586748396 -0.8241164157
H -3.3771794743 -0.1960091881 0.1478730410
H -2.7066283377 1.2407915514 0.9328677139
H -2.0413314446 -2.0655710844 0.1671774003
H 0.1710252735 -3.1818489876 0.1122663668
H 2.2488981752 -1.8079918498 -0.0323469244
H 0.4252236419 2.5753658658 -1.0022092432
H -1.1165430356 2.5919615912 -0.1517188075
H 0.3881726792 2.6576149025 0.7641379510
H 2.1738679593 1.6954214385 -0.1409073878
19
CONF2
C -2.5843737054 0.6045140734 -0.0010888557
C -1.2322906990 -0.0562988491 0.0002007687
C -1.1512238552 -1.4545717339 -0.0000129514
C 0.0806571047 -2.1000097030 0.0004777083
C 1.2561086981 -1.3580718241 0.0002878179
C 1.1753600861 0.0323055889 0.0000528645
C -0.0529425440 0.7087226305 0.0012966503
C -0.0495404841 2.2106779832 0.0011496539
O 2.3127512378 0.8159153676 -0.0021503513
H -2.7260622380 1.2352667749 0.8833706155
H -2.7186538516 1.2470355084 -0.8781202262
H -3.3758418645 -0.1482915606 -0.0091697721
H -2.0674495100 -2.0373150408 -0.0007880527
H 0.1293571498 -3.1845511915 0.0005011034
H 2.2290202540 -1.8422206003 -0.0000773339
H 0.5059796938 2.6020609781 0.8605245068
H 0.4433566396 2.6027597278 -0.8958576898
H -1.0587442397 2.6198785197 0.0369345856
H 3.0876802023 0.2368402357 -0.0013869022
19
CONF4
C -2.5958693621 0.5776975814 -0.0004626732
C -1.2366689821 -0.0682895758 0.0000089423
C -1.1396192952 -1.4643538684 0.0000880030
C 0.1006914519 -2.0955020963 0.0002664451
C 1.2667949592 -1.3417153365 0.0000443927
C 1.1716322009 0.0473715973 -0.0001744066
C -0.0647352264 0.7106222839 0.0002831052
C -0.0858644066 2.2138949382 0.0005122393
O 2.3640517188 0.7460505964 -0.0008286526
H -2.7402374063 1.2135049174 -0.8808584012
H -3.3789546058 -0.1838729523 -0.0019478406
H -2.7418427542 1.2116008917 0.8810491177
H -2.0490936861 -2.0575706182 -0.0000365569
H 0.1608175599 -3.1794816754 0.0004248808
H 2.2457206491 -1.8100185001 -0.0000990003
H 0.4156722174 2.6215334575 -0.8870975894
H -1.1019746382 2.6059769331 0.0077350543
H 0.4277211718 2.6213250680 0.8812820429
H 2.1834714322 1.6959428599 -0.0020944436
19
CONF1
C -2.5589644139 0.6277600404 0.0001905099
C -1.2229705423 -0.0583988413 -0.0000266111
C -1.1512826761 -1.4544003825 -0.0000579050
C 0.0812355123 -2.1006525580 -0.0000907553
C 1.2555573917 -1.3590741529 -0.0000728785
C 1.1848908978 0.0346464579 -0.0000342624
C -0.0431550297 0.7094147895 -0.0000491385
C -0.1115462774 2.2097924873 0.0000267112
O 2.3376608448 0.7974458405 0.0000380029
H -2.6773712256 1.2713432537 0.8797133765
H -2.6768955549 1.2730513122 -0.8781268352
H -3.3706993438 -0.1031318130 -0.0007131656
H -2.0698237691 -2.0336572522 -0.0000646407
H 0.1305155661 -3.1852019549 -0.0001272677
H 2.2267113570 -1.8470353223 -0.0000743043
H -0.6545140607 2.5763120904 -0.8788175270
H -0.6533896663 2.5762806258 0.8795884508
H 0.8785748790 2.6642721078 -0.0006037423
H 3.0989841352 0.2013100497 -0.0000146591
19
CONF6
C -2.5691632732 0.6010502773 -0.0024735445
C -1.2244530276 -0.0683388882 0.0000946442
C -1.1388425847 -1.4621650909 0.0001061710
C 0.1009186239 -2.0959341016 0.0020265536
C 1.2654618530 -1.3428056370 0.0010918016
C 1.1835907719 0.0502080358 -0.0006610029
C -0.0517192176 0.7148988302 0.0025542836
C -0.1639866022 2.2138762619 0.0041335753
O 2.3949576612 0.7161069951 -0.0053145622
H -2.7031621042 1.2338574640 0.8825905712
H -2.6899651155 1.2530748566 -0.8753196955
H -3.3707024129 -0.1408015311 -0.0161676434
H -2.0516310107 -2.0503074294 -0.0014613121
H 0.1608372825 -3.1799309979 0.0028492788
H 2.2429684470 -1.8140586482 0.0002818687
H 0.7963008717 2.7321792987 0.0547864479
H -0.6727889513 2.5693596562 -0.8989366954
H -0.7539823911 2.5588305666 0.8601499461
H 2.2442571700 1.6701515371 -0.0196301977
19
CONF5
C -2.6149628487 0.5615185489 0.0008588017
C -1.2344784788 -0.0430826878 -0.0002821765
C -1.1503285234 -1.4448861421 -0.0004703310
C 0.0753259110 -2.0939491180 -0.0005793639
C 1.2539772812 -1.3535295906 -0.0000808533
C 1.1736307272 0.0338649449 0.0002236717
C -0.0550537734 0.7205422439 -0.0006405836
C -0.0069981455 2.2229450562 -0.0007751661
O 2.3128708902 0.8148102353 0.0017027375
H -3.1750952524 0.2244867484 0.8797115702
H -2.6172101970 1.6504234126 0.0036888887
H -3.1752373869 0.2287475574 -0.8795560948
H -2.0692601931 -2.0243938713 -0.0003132806
H 0.1210936106 -3.1786236868 -0.0007438291
H 2.2261082568 -1.8391096181 0.0002153863
H 0.5481326460 2.5941084482 -0.8691224652
H -0.9972336707 2.6742737475 -0.0201643045
H 0.5149105202 2.5960859181 0.8874067603
H 3.0859036870 0.2331983233 0.0013164358
