 xtb: 6.7.1 (edcfbbe)
          04092505213D

 41 40  0     0  0            999 V2000
    4.8402    1.6629   -0.2755 C   0  0  0  0  0  0  0  0  0  0  0  0
    4.0289    1.3139   -1.5059 C   0  0  0  0  0  0  0  0  0  0  0  0
    3.2770    0.0942   -1.3586 O   0  0  0  0  0  0  0  0  0  0  0  0
    2.3153   -0.2690   -0.1472 P   0  0  0  0  0  0  0  0  0  0  0  0
    3.1631   -0.8677    1.5201 S   0  0  0  0  0  0  0  0  0  0  0  0
    1.3992   -1.3586   -0.8338 O   0  0  0  0  0  0  0  0  0  0  0  0
    1.5573   -2.7839   -0.6693 C   0  0  0  0  0  0  0  0  0  0  0  0
    0.2594   -3.3827   -0.1664 C   0  0  0  0  0  0  0  0  0  0  0  0
    1.0424    1.4077   -0.0168 S   0  0  0  0  0  0  0  0  0  0  0  0
    0.3665    1.0569    1.6247 C   0  0  0  0  0  0  0  0  0  0  0  0
   -0.8423   -0.2994    1.6473 S   0  0  0  0  0  0  0  0  0  0  0  0
   -2.1092    0.3065    0.0523 P   0  0  0  0  0  0  0  0  0  0  0  0
   -1.7140   -0.3017   -1.7735 S   0  0  0  0  0  0  0  0  0  0  0  0
   -2.1118    1.8680    0.3077 O   0  0  0  0  0  0  0  0  0  0  0  0
   -2.4210    2.8084   -0.7423 C   0  0  0  0  0  0  0  0  0  0  0  0
   -3.8859    2.7586   -1.1206 C   0  0  0  0  0  0  0  0  0  0  0  0
   -3.5628   -0.1091    0.5490 O   0  0  0  0  0  0  0  0  0  0  0  0
   -4.1338   -1.3977    0.2786 C   0  0  0  0  0  0  0  0  0  0  0  0
   -3.5583   -2.4603    1.1929 C   0  0  0  0  0  0  0  0  0  0  0  0
    4.1792    1.8805    0.5625 H   0  0  0  0  0  0  0  0  0  0  0  0
    5.4861    0.8330    0.0014 H   0  0  0  0  0  0  0  0  0  0  0  0
    5.4479    2.5378   -0.4832 H   0  0  0  0  0  0  0  0  0  0  0  0
    4.6715    1.1148   -2.3655 H   0  0  0  0  0  0  0  0  0  0  0  0
    3.3259    2.1160   -1.7482 H   0  0  0  0  0  0  0  0  0  0  0  0
    1.8193   -3.1715   -1.6555 H   0  0  0  0  0  0  0  0  0  0  0  0
    2.3767   -2.9734    0.0321 H   0  0  0  0  0  0  0  0  0  0  0  0
    0.3427   -4.4644   -0.1620 H   0  0  0  0  0  0  0  0  0  0  0  0
    0.0520   -3.0339    0.8432 H   0  0  0  0  0  0  0  0  0  0  0  0
   -0.5564   -3.0862   -0.8219 H   0  0  0  0  0  0  0  0  0  0  0  0
   -0.1063    1.9710    1.9734 H   0  0  0  0  0  0  0  0  0  0  0  0
    1.1748    0.7445    2.2889 H   0  0  0  0  0  0  0  0  0  0  0  0
   -2.1410    3.7740   -0.3194 H   0  0  0  0  0  0  0  0  0  0  0  0
   -1.7870    2.5846   -1.6064 H   0  0  0  0  0  0  0  0  0  0  0  0
   -4.1180    1.7934   -1.5690 H   0  0  0  0  0  0  0  0  0  0  0  0
   -4.5062    2.8947   -0.2388 H   0  0  0  0  0  0  0  0  0  0  0  0
   -4.0993    3.5429   -1.8400 H   0  0  0  0  0  0  0  0  0  0  0  0
   -5.2029   -1.2586    0.4447 H   0  0  0  0  0  0  0  0  0  0  0  0
   -3.9502   -1.6459   -0.7728 H   0  0  0  0  0  0  0  0  0  0  0  0
   -3.7080   -2.1839    2.2331 H   0  0  0  0  0  0  0  0  0  0  0  0
   -4.0441   -3.4105    0.9966 H   0  0  0  0  0  0  0  0  0  0  0  0
   -2.4886   -2.5638    1.0126 H   0  0  0  0  0  0  0  0  0  0  0  0
  1  2  1  0  0  0  0
  2  3  1  0  0  0  0
  3  4  2  0  0  0  0
  4  5  2  0  0  0  0
  4  6  2  0  0  0  0
  6  7  1  0  0  0  0
  7  8  1  0  0  0  0
  4  9  1  0  0  0  0
  9 10  1  0  0  0  0
 10 11  1  0  0  0  0
 11 12  1  0  0  0  0
 12 13  2  0  0  0  0
 12 14  2  0  0  0  0
 14 15  1  0  0  0  0
 15 16  1  0  0  0  0
 12 17  2  0  0  0  0
 17 18  1  0  0  0  0
 18 19  1  0  0  0  0
  1 20  1  0  0  0  0
  1 21  1  0  0  0  0
  1 22  1  0  0  0  0
  2 23  1  0  0  0  0
  2 24  1  0  0  0  0
  7 25  1  0  0  0  0
  7 26  1  0  0  0  0
  8 27  1  0  0  0  0
  8 28  1  0  0  0  0
  8 29  1  0  0  0  0
 10 30  1  0  0  0  0
 10 31  1  0  0  0  0
 15 32  1  0  0  0  0
 15 33  1  0  0  0  0
 16 34  1  0  0  0  0
 16 35  1  0  0  0  0
 16 36  1  0  0  0  0
 18 37  1  0  0  0  0
 18 38  1  0  0  0  0
 19 39  1  0  0  0  0
 19 40  1  0  0  0  0
 19 41  1  0  0  0  0
M  END
