 xtb: 6.7.1 (edcfbbe)
          04092505213D

 41 40  0     0  0            999 V2000
    1.9096   -1.3032   -2.9336 C   0  0  0  0  0  0  0  0  0  0  0  0
    2.3844    0.0749   -2.5269 C   0  0  0  0  0  0  0  0  0  0  0  0
    1.8823    0.4561   -1.2309 O   0  0  0  0  0  0  0  0  0  0  0  0
    2.3895   -0.2364    0.1014 P   0  0  0  0  0  0  0  0  0  0  0  0
    4.2723   -0.7710    0.1465 S   0  0  0  0  0  0  0  0  0  0  0  0
    1.3588   -1.4452    0.2663 O   0  0  0  0  0  0  0  0  0  0  0  0
    1.6237   -2.5358    1.1653 C   0  0  0  0  0  0  0  0  0  0  0  0
    1.5030   -2.1143    2.6159 C   0  0  0  0  0  0  0  0  0  0  0  0
    1.8101    1.2529    1.4818 S   0  0  0  0  0  0  0  0  0  0  0  0
    0.1290    1.6289    0.9107 C   0  0  0  0  0  0  0  0  0  0  0  0
   -1.0668    0.3082    1.2861 S   0  0  0  0  0  0  0  0  0  0  0  0
   -2.2399    0.5419   -0.4754 P   0  0  0  0  0  0  0  0  0  0  0  0
   -1.2913    0.7128   -2.1758 S   0  0  0  0  0  0  0  0  0  0  0  0
   -3.1303    1.8203   -0.2150 O   0  0  0  0  0  0  0  0  0  0  0  0
   -4.0739    1.9433    0.8822 C   0  0  0  0  0  0  0  0  0  0  0  0
   -3.5268    2.8620    1.9570 C   0  0  0  0  0  0  0  0  0  0  0  0
   -3.3005   -0.6391   -0.3739 O   0  0  0  0  0  0  0  0  0  0  0  0
   -3.0654   -1.9392   -0.9445 C   0  0  0  0  0  0  0  0  0  0  0  0
   -1.9159   -2.6598   -0.2713 C   0  0  0  0  0  0  0  0  0  0  0  0
    0.8235   -1.3421   -2.8988 H   0  0  0  0  0  0  0  0  0  0  0  0
    2.2442   -1.5125   -3.9446 H   0  0  0  0  0  0  0  0  0  0  0  0
    2.3203   -2.0528   -2.2590 H   0  0  0  0  0  0  0  0  0  0  0  0
    1.9922    0.8451   -3.1927 H   0  0  0  0  0  0  0  0  0  0  0  0
    3.4778    0.1196   -2.4979 H   0  0  0  0  0  0  0  0  0  0  0  0
    0.8793   -3.2876    0.9000 H   0  0  0  0  0  0  0  0  0  0  0  0
    2.6298   -2.9148    0.9579 H   0  0  0  0  0  0  0  0  0  0  0  0
    0.5346   -1.6536    2.7975 H   0  0  0  0  0  0  0  0  0  0  0  0
    1.6150   -2.9856    3.2528 H   0  0  0  0  0  0  0  0  0  0  0  0
    2.2851   -1.3954    2.8598 H   0  0  0  0  0  0  0  0  0  0  0  0
    0.1396    1.7926   -0.1676 H   0  0  0  0  0  0  0  0  0  0  0  0
   -0.1510    2.5321    1.4476 H   0  0  0  0  0  0  0  0  0  0  0  0
   -4.9698    2.3635    0.4227 H   0  0  0  0  0  0  0  0  0  0  0  0
   -4.2946    0.9505    1.2771 H   0  0  0  0  0  0  0  0  0  0  0  0
   -2.6808    2.4043    2.4636 H   0  0  0  0  0  0  0  0  0  0  0  0
   -3.2124    3.8043    1.5161 H   0  0  0  0  0  0  0  0  0  0  0  0
   -4.3084    3.0546    2.6853 H   0  0  0  0  0  0  0  0  0  0  0  0
   -4.0121   -2.4614   -0.7981 H   0  0  0  0  0  0  0  0  0  0  0  0
   -2.8704   -1.8157   -2.0144 H   0  0  0  0  0  0  0  0  0  0  0  0
   -1.8459   -3.6685   -0.6661 H   0  0  0  0  0  0  0  0  0  0  0  0
   -0.9824   -2.1355   -0.4724 H   0  0  0  0  0  0  0  0  0  0  0  0
   -2.0734   -2.7004    0.8039 H   0  0  0  0  0  0  0  0  0  0  0  0
  1  2  1  0  0  0  0
  2  3  1  0  0  0  0
  3  4  2  0  0  0  0
  4  5  2  0  0  0  0
  4  6  2  0  0  0  0
  6  7  1  0  0  0  0
  7  8  1  0  0  0  0
  4  9  1  0  0  0  0
  9 10  1  0  0  0  0
 10 11  1  0  0  0  0
 11 12  1  0  0  0  0
 12 13  2  0  0  0  0
 12 14  2  0  0  0  0
 14 15  1  0  0  0  0
 15 16  1  0  0  0  0
 12 17  2  0  0  0  0
 17 18  1  0  0  0  0
 18 19  1  0  0  0  0
  1 20  1  0  0  0  0
  1 21  1  0  0  0  0
  1 22  1  0  0  0  0
  2 23  1  0  0  0  0
  2 24  1  0  0  0  0
  7 25  1  0  0  0  0
  7 26  1  0  0  0  0
  8 27  1  0  0  0  0
  8 28  1  0  0  0  0
  8 29  1  0  0  0  0
 10 30  1  0  0  0  0
 10 31  1  0  0  0  0
 15 32  1  0  0  0  0
 15 33  1  0  0  0  0
 16 34  1  0  0  0  0
 16 35  1  0  0  0  0
 16 36  1  0  0  0  0
 18 37  1  0  0  0  0
 18 38  1  0  0  0  0
 19 39  1  0  0  0  0
 19 40  1  0  0  0  0
 19 41  1  0  0  0  0
M  END
