41
 xtb: 6.7.1 (edcfbbe)
C            2.98567373412596        0.62896317753793        3.26021948170036
C            1.65356712561863        0.10255106352832        2.78480786176173
O            1.38144702834760        0.46065478055939        1.38319413706650
P            2.20815146186265       -0.20242689560365        0.17515749967556
S            2.64868370892618       -2.09209083527621        0.34564322826427
O            3.43257349723766        0.83383340869552        0.02636189833041
C            4.72800291132268        0.46270379770344       -0.55978449007017
C            4.67710101974492        0.41582441457728       -2.06660858136521
S            1.01457149302119        0.35189752500064       -1.48387717105284
C           -0.11805862325746       -1.08627501762890       -1.59537057479622
S           -1.34323527725992       -1.30265317417366       -0.24741181888056
P           -2.58667074806021        0.39775906938044       -0.54842271572294
S           -2.81272266645968        0.95726007032813       -2.39476037495911
O           -2.02816340233238        1.59184906005347        0.36400982787076
C           -1.86709718459432        1.44255627686770        1.82279218548160
C           -1.11365184425084        2.65148482193061        2.31209014900280
O           -3.88978168829198       -0.05147609971659        0.28305195577979
C           -4.84677578420869       -1.01431469988699       -0.28350666785055
C           -5.89123457894530       -1.27520102783234        0.76949521629173
H            3.07426250459044        0.42980744313263        4.33324217842486
H            3.82173571804558        0.13714810791719        2.75395683682376
H            3.05859149067916        1.70883739541028        3.10263933419571
H            0.82420720704138        0.56086202913828        3.32760786814767
H            1.58317329024676       -0.98566517651285        2.87813800424150
H            5.40029383355633        1.24639965351992       -0.20489920208208
H            5.03675792619987       -0.49453388875912       -0.12937352025110
H            5.69262525561519        0.25498277609088       -2.44293482367172
H            4.04790067624711       -0.40361444385801       -2.42509876521803
H            4.30405608142935        1.35892812869596       -2.47638202630780
H            0.46711731243851       -2.01068194644133       -1.61034034122760
H           -0.64308259089371       -0.96909310776165       -2.54761293895958
H           -2.86443043427544        1.37827925572023        2.26601951407673
H           -1.31987054427547        0.51439140859533        2.01886175720345
H           -1.00173540216347        2.58219716984112        3.39850091582795
H           -0.11844973548998        2.70533949126964        1.86248139730494
H           -1.66168305877435        3.56960998384516        2.08193069035240
H           -5.27740283650450       -0.56975183051206       -1.18564903876164
H           -4.30569469879702       -1.92732346715676       -0.55281126841996
H           -6.41624118779152       -0.35362864853957        1.03578475706127
H           -6.62152965972020       -1.98632494052571        0.37173489823401
H           -5.44314592662206       -1.70645814424491        1.66888914487684
