 xtb: 6.7.1 (edcfbbe)
          04032519543D

 17 17  0     0  0            999 V2000
    1.8643   -1.4295   -0.0003 C   0  0  0  0  0  0  0  0  0  0  0  0
    0.5602   -0.7010    0.0003 C   0  0  0  0  0  0  0  0  0  0  0  0
   -0.6476   -1.3882    0.0002 C   0  0  0  0  0  0  0  0  0  0  0  0
   -1.8351   -0.6770   -0.0001 C   0  0  0  0  0  0  0  0  0  0  0  0
   -1.8881    0.6461   -0.0002 N   0  0  0  0  0  0  0  0  0  0  0  0
   -0.7370    1.3013   -0.0000 C   0  0  0  0  0  0  0  0  0  0  0  0
    0.5143    0.6986    0.0002 C   0  0  0  0  0  0  0  0  0  0  0  0
    1.7633    1.5196    0.0000 C   0  0  0  0  0  0  0  0  0  0  0  0
    2.4499   -1.1554    0.8757 H   0  0  0  0  0  0  0  0  0  0  0  0
    1.7050   -2.5040    0.0045 H   0  0  0  0  0  0  0  0  0  0  0  0
    2.4446   -1.1626   -0.8821 H   0  0  0  0  0  0  0  0  0  0  0  0
   -0.6631   -2.4675    0.0005 H   0  0  0  0  0  0  0  0  0  0  0  0
   -2.7918   -1.1823    0.0002 H   0  0  0  0  0  0  0  0  0  0  0  0
   -0.8247    2.3808   -0.0004 H   0  0  0  0  0  0  0  0  0  0  0  0
    1.5232    2.5791    0.0013 H   0  0  0  0  0  0  0  0  0  0  0  0
    2.3652    1.2948    0.8791 H   0  0  0  0  0  0  0  0  0  0  0  0
    2.3640    1.2966   -0.8803 H   0  0  0  0  0  0  0  0  0  0  0  0
  1  2  1  0  0  0  0
  2  3  4  0  0  0  0
  3  4  4  0  0  0  0
  4  5  4  0  0  0  0
  5  6  4  0  0  0  0
  2  7  4  0  0  0  0
  6  7  4  0  0  0  0
  7  8  1  0  0  0  0
  1  9  1  0  0  0  0
  1 10  1  0  0  0  0
  1 11  1  0  0  0  0
  3 12  1  0  0  0  0
  4 13  1  0  0  0  0
  6 14  1  0  0  0  0
  8 15  1  0  0  0  0
  8 16  1  0  0  0  0
  8 17  1  0  0  0  0
M  END
