 xtb: 6.7.1 (edcfbbe)
          04092507313D

 38 37  0     0  0            999 V2000
    4.9578   -3.5984   -1.4346 C   0  0  0  0  0  0  0  0  0  0  0  0
    4.2376   -2.5305   -0.6358 C   0  0  0  0  0  0  0  0  0  0  0  0
    3.2364   -1.9368   -1.4879 O   0  0  0  0  0  0  0  0  0  0  0  0
    2.3880   -1.0938   -0.9473 C   0  0  0  0  0  0  0  0  0  0  0  0
    2.3876   -0.7818    0.2267 O   0  0  0  0  0  0  0  0  0  0  0  0
    1.4104   -0.5379   -1.9607 C   0  0  0  0  0  0  0  0  0  0  0  0
    0.3092    0.2262   -1.2384 C   0  0  0  0  0  0  0  0  0  0  0  0
   -0.2996    0.7960   -1.9484 H   0  0  0  0  0  0  0  0  0  0  0  0
    0.9267    1.2190   -0.2662 C   0  0  0  0  0  0  0  0  0  0  0  0
    1.8394    1.9457   -0.5886 O   0  0  0  0  0  0  0  0  0  0  0  0
    0.3046    1.2465    0.8935 O   0  0  0  0  0  0  0  0  0  0  0  0
    0.7955    2.1237    1.9258 C   0  0  0  0  0  0  0  0  0  0  0  0
    1.6305    1.3345    2.9195 C   0  0  0  0  0  0  0  0  0  0  0  0
   -0.8016   -0.9406   -0.3831 S   0  0  0  0  0  0  0  0  0  0  0  0
   -2.2613    0.4474    0.2936 P   0  0  0  0  0  0  0  0  0  0  0  0
   -2.3737    2.1485   -0.6701 S   0  0  0  0  0  0  0  0  0  0  0  0
   -3.5986   -0.4336    0.2087 O   0  0  0  0  0  0  0  0  0  0  0  0
   -4.1593   -0.8118   -1.0532 C   0  0  0  0  0  0  0  0  0  0  0  0
   -2.1581    0.6185    1.8603 O   0  0  0  0  0  0  0  0  0  0  0  0
   -2.0783   -0.5118    2.7505 C   0  0  0  0  0  0  0  0  0  0  0  0
    4.2548   -4.3603   -1.7569 H   0  0  0  0  0  0  0  0  0  0  0  0
    5.4225   -3.1566   -2.3107 H   0  0  0  0  0  0  0  0  0  0  0  0
    5.7224   -4.0547   -0.8148 H   0  0  0  0  0  0  0  0  0  0  0  0
    4.9187   -1.7395   -0.3070 H   0  0  0  0  0  0  0  0  0  0  0  0
    3.7379   -2.9442    0.2456 H   0  0  0  0  0  0  0  0  0  0  0  0
    1.0043   -1.3480   -2.5652 H   0  0  0  0  0  0  0  0  0  0  0  0
    1.9594    0.1476   -2.6102 H   0  0  0  0  0  0  0  0  0  0  0  0
    1.3830    2.9125    1.4475 H   0  0  0  0  0  0  0  0  0  0  0  0
   -0.0993    2.5460    2.3870 H   0  0  0  0  0  0  0  0  0  0  0  0
    2.4409    0.8314    2.3960 H   0  0  0  0  0  0  0  0  0  0  0  0
    2.0438    2.0124    3.6587 H   0  0  0  0  0  0  0  0  0  0  0  0
    1.0196    0.5859    3.4157 H   0  0  0  0  0  0  0  0  0  0  0  0
   -4.2467    0.0620   -1.7008 H   0  0  0  0  0  0  0  0  0  0  0  0
   -5.1424   -1.2164   -0.8269 H   0  0  0  0  0  0  0  0  0  0  0  0
   -3.5307   -1.5661   -1.5260 H   0  0  0  0  0  0  0  0  0  0  0  0
   -2.9697   -1.1281    2.6518 H   0  0  0  0  0  0  0  0  0  0  0  0
   -2.0130   -0.0837    3.7475 H   0  0  0  0  0  0  0  0  0  0  0  0
   -1.1890   -1.0997    2.5222 H   0  0  0  0  0  0  0  0  0  0  0  0
  1  2  1  0  0  0  0
  2  3  1  0  0  0  0
  3  4  4  0  0  0  0
  4  5  2  0  0  0  0
  4  6  1  0  0  0  0
  6  7  1  0  0  0  0
  7  8  1  0  0  0  0
  7  9  1  0  0  0  0
  9 10  2  0  0  0  0
  9 11  1  0  0  0  0
 11 12  1  0  0  0  0
 12 13  1  0  0  0  0
  7 14  1  0  0  0  0
 14 15  1  0  0  0  0
 15 16  2  0  0  0  0
 15 17  1  0  0  0  0
 17 18  1  0  0  0  0
 15 19  2  0  0  0  0
 19 20  1  0  0  0  0
  1 21  1  0  0  0  0
  1 22  1  0  0  0  0
  1 23  1  0  0  0  0
  2 24  1  0  0  0  0
  2 25  1  0  0  0  0
  6 26  1  0  0  0  0
  6 27  1  0  0  0  0
 12 28  1  0  0  0  0
 12 29  1  0  0  0  0
 13 30  1  0  0  0  0
 13 31  1  0  0  0  0
 13 32  1  0  0  0  0
 18 33  1  0  0  0  0
 18 34  1  0  0  0  0
 18 35  1  0  0  0  0
 20 36  1  0  0  0  0
 20 37  1  0  0  0  0
 20 38  1  0  0  0  0
M  END
