 xtb: 6.7.1 (edcfbbe)
          04032519583D

 10  9  0     0  0            999 V2000
   -0.6793   -0.5311    0.3669 C   0  0  0  0  0  0  0  0  0  0  0  0
    0.6752   -0.5426   -0.3414 C   0  0  0  0  0  0  0  0  0  0  0  0
    1.5089    0.4679    0.1932 O   0  0  0  0  0  0  0  0  0  0  0  0
   -1.4840    0.4803   -0.2044 O   0  0  0  0  0  0  0  0  0  0  0  0
   -0.5087   -0.3408    1.4325 H   0  0  0  0  0  0  0  0  0  0  0  0
   -1.1559   -1.5120    0.2419 H   0  0  0  0  0  0  0  0  0  0  0  0
    0.5011   -0.3966   -1.4096 H   0  0  0  0  0  0  0  0  0  0  0  0
    1.1532   -1.5178   -0.1813 H   0  0  0  0  0  0  0  0  0  0  0  0
    1.9615    0.9390   -0.5163 H   0  0  0  0  0  0  0  0  0  0  0  0
   -2.2991    0.5719    0.3067 H   0  0  0  0  0  0  0  0  0  0  0  0
  1  2  1  0  0  0  0
  2  3  1  0  0  0  0
  1  4  1  0  0  0  0
  1  5  1  0  0  0  0
  1  6  1  0  0  0  0
  2  7  1  0  0  0  0
  2  8  1  0  0  0  0
  3  9  1  0  0  0  0
  4 10  1  0  0  0  0
M  END
