41
 xtb: 6.7.1 (edcfbbe)
C            2.43817523936056       -1.97914897011481        2.63743222197025
C            1.39743236109894       -1.65977565653004        1.59393783906570
O            1.52577954510177       -0.26213434876248        1.17134222997872
P            2.31057851549571        0.22691236306754       -0.14422639833410
S            3.19917335998454       -1.17033384245548       -1.17227721185209
O            3.17291205148581        1.47115513722885        0.39861584203385
C            4.01252846600330        1.37081756759779        1.60657568017081
C            5.37638857993098        0.80860420615762        1.29154250461708
S            0.93332991333079        1.43619493909103       -1.21632412210994
C            0.15061468547827        0.17808228189268       -2.29540861864461
S           -0.74592508565149       -1.19398655802406       -1.47401628731325
P           -2.26944707211100       -0.11739419420638       -0.45716894573189
S           -3.02390665379387        1.41359775779173       -1.39756941670973
O           -1.71433968108063        0.18230264102746        1.02477205032973
C           -1.53897311057392        1.52293577005799        1.59328596591908
C           -2.70375369664645        1.85554181588295        2.49103579152480
O           -3.19323074946164       -1.40787216676483       -0.20649165956987
C           -4.38725328569783       -1.29572208976568        0.65470127513157
C           -5.63052284194649       -1.35689435240796       -0.19476906219686
H            2.29632257038494       -3.01137746204750        2.97458937018220
H            3.44812654630462       -1.88654594459774        2.22560649393630
H            2.34303775292345       -1.31826858129869        3.50374377393070
H            0.38220595371173       -1.73405170136723        1.99113985108558
H            1.48603857059521       -2.30643087401665        0.71712142348669
H            4.07498719095244        2.40202990443292        1.95985151810156
H            3.48229897551129        0.77356856311017        2.35343236684498
H            5.98769404217019        0.85550592677035        2.19897218562993
H            5.31836060612985       -0.23412657861396        0.96953190683380
H            5.87124380472429        1.39597067740702        0.51275213611860
H            0.91237018952702       -0.30802252360861       -2.91214973683454
H           -0.53546686974687        0.73635135957769       -2.93918027504330
H           -0.59872758698757        1.46670788108632        2.14711238660808
H           -1.43060137088601        2.24586200862068        0.78085670971486
H           -3.63444606969951        1.92089257539198        1.91973078032518
H           -2.81948872476529        1.10594197876962        3.27932843412259
H           -2.52028362175151        2.82646552806669        2.96326511272964
H           -4.31674137607197       -2.14275806002257        1.34100001959747
H           -4.33378414477051       -0.36971289195801        1.23583937113460
H           -5.68523979920246       -0.50187720630190       -0.87400451500294
H           -5.65989075073334       -2.28109976942246       -0.77877872500844
H           -6.50709319245207       -1.33561320081647        0.46103958280618
