41
 xtb: 6.7.1 (edcfbbe)
C            3.30361681210485       -1.73202111093438       -2.61089270556017
C            2.08247583532013       -1.18039087844259       -1.91939251575626
O            2.46866339646483       -0.03174806807081       -1.07788111189721
P            2.53849849219257       -0.13066901156575        0.52070287159966
S            3.24372797046117        1.51149232131893        1.28503907985640
O            3.34042908572951       -1.50407861069095        0.75169858823287
C            4.17817300090726       -1.76601188595589        1.93350294444533
C            3.35752014750346       -2.17109001594583        3.13125786348551
S            0.61180542269598       -0.71779302549302        1.20454732701269
C           -0.27333063538807        0.88746544551038        1.11138459111128
S           -0.76956650260347        1.46389582799597       -0.56962321993935
P           -2.67739015991851        0.58232118445685       -0.76764166477161
S           -3.46128079358780        1.15802779501818       -2.45226423064928
O           -3.49306951886587        0.85176175115546        0.58830735824032
C           -4.32439236735816        2.04869826544873        0.78138447505076
C           -3.50257379695991        3.27077438453273        1.10859996357382
O           -2.48341418230695       -0.99725053541120       -0.51984619222845
C           -1.76893320506029       -1.79146068225416       -1.52778163555581
C           -1.60264674342538       -3.18224640413495       -0.97512916219380
H            3.79068661673151       -0.96064877602113       -3.21407555182251
H            4.02226573491117       -2.12963165182115       -1.88943522383381
H            2.99434984493989       -2.54459993169878       -3.27646773159883
H            1.58145504107097       -1.93543793941513       -1.30511203373033
H            1.36156663860467       -0.77367753327117       -2.63229241682842
H            4.83425668155161       -2.57361167761775        1.60311286762404
H            4.77949063535448       -0.87343620690701        2.12905151536979
H            4.04140377572456       -2.46060098064741        3.93596827262106
H            2.73662424492775       -1.34699519391022        3.49339862721523
H            2.71821345664718       -3.02771285797248        2.89852502132489
H            0.36204413065944        1.67113863047505        1.53566330215102
H           -1.16217540945358        0.78075968741455        1.73905206203478
H           -4.93494370613928        2.19117846892958       -0.11538674813597
H           -4.97441625432834        1.76900434185268        1.61267547897516
H           -4.18630597039689        4.08154903908832        1.38082629964881
H           -2.83720852692669        3.08220050671295        1.95661900650105
H           -2.90699524716621        3.60078257313402        0.25361421948854
H           -2.36520610493281       -1.78830521616711       -2.44552287571657
H           -0.80220022694175       -1.31649118806627       -1.72383863607791
H           -2.57432340032300       -3.64032080350222       -0.76934499255758
H           -1.08294545935007       -3.79495222449177       -1.71823757077760
H           -1.00864544780742       -3.17406858180024       -0.05711735699599
