 xtb: 6.7.1 (edcfbbe)
          04092514013D

 41 40  0     0  0            999 V2000
    5.9548   -0.3681    0.2860 C   0  0  0  0  0  0  0  0  0  0  0  0
    4.6420   -0.7159   -0.3884 C   0  0  0  0  0  0  0  0  0  0  0  0
    3.5804   -0.0401    0.3182 O   0  0  0  0  0  0  0  0  0  0  0  0
    2.1490    0.2063   -0.3274 P   0  0  0  0  0  0  0  0  0  0  0  0
    2.1699    0.9341   -2.1511 S   0  0  0  0  0  0  0  0  0  0  0  0
    1.4447    1.0751    0.7912 O   0  0  0  0  0  0  0  0  0  0  0  0
    1.4526    2.5157    0.7617 C   0  0  0  0  0  0  0  0  0  0  0  0
    2.8255    3.0792    1.0585 C   0  0  0  0  0  0  0  0  0  0  0  0
    1.2137   -1.6601   -0.0662 S   0  0  0  0  0  0  0  0  0  0  0  0
   -0.0849   -1.5864   -1.3552 C   0  0  0  0  0  0  0  0  0  0  0  0
   -1.7327   -1.8991   -0.6929 S   0  0  0  0  0  0  0  0  0  0  0  0
   -2.1335    0.0266    0.1201 P   0  0  0  0  0  0  0  0  0  0  0  0
   -1.5338    1.5297   -0.9855 S   0  0  0  0  0  0  0  0  0  0  0  0
   -1.5028    0.0969    1.5589 O   0  0  0  0  0  0  0  0  0  0  0  0
   -1.4165   -0.9801    2.5264 C   0  0  0  0  0  0  0  0  0  0  0  0
   -2.7688   -1.5145    2.9441 C   0  0  0  0  0  0  0  0  0  0  0  0
   -3.6929   -0.0247    0.4095 O   0  0  0  0  0  0  0  0  0  0  0  0
   -4.6798    0.0516   -0.6401 C   0  0  0  0  0  0  0  0  0  0  0  0
   -5.9944    0.4775   -0.0157 C   0  0  0  0  0  0  0  0  0  0  0  0
    6.1367    0.7015    0.2306 H   0  0  0  0  0  0  0  0  0  0  0  0
    5.9275   -0.6673    1.3296 H   0  0  0  0  0  0  0  0  0  0  0  0
    6.7610   -0.8926   -0.2168 H   0  0  0  0  0  0  0  0  0  0  0  0
    4.4485   -1.7911   -0.3466 H   0  0  0  0  0  0  0  0  0  0  0  0
    4.6286   -0.3892   -1.4337 H   0  0  0  0  0  0  0  0  0  0  0  0
    1.0954    2.8439   -0.2207 H   0  0  0  0  0  0  0  0  0  0  0  0
    0.7201    2.7948    1.5208 H   0  0  0  0  0  0  0  0  0  0  0  0
    3.5161    2.8112    0.2598 H   0  0  0  0  0  0  0  0  0  0  0  0
    2.7605    4.1613    1.1205 H   0  0  0  0  0  0  0  0  0  0  0  0
    3.1997    2.6822    1.9983 H   0  0  0  0  0  0  0  0  0  0  0  0
    0.1106   -2.3771   -2.0748 H   0  0  0  0  0  0  0  0  0  0  0  0
   -0.0549   -0.6024   -1.8318 H   0  0  0  0  0  0  0  0  0  0  0  0
   -0.7960   -1.7735    2.0998 H   0  0  0  0  0  0  0  0  0  0  0  0
   -0.8907   -0.5147    3.3615 H   0  0  0  0  0  0  0  0  0  0  0  0
   -3.4066   -0.7044    3.2876 H   0  0  0  0  0  0  0  0  0  0  0  0
   -3.2535   -2.0183    2.1110 H   0  0  0  0  0  0  0  0  0  0  0  0
   -2.6259   -2.2259    3.7522 H   0  0  0  0  0  0  0  0  0  0  0  0
   -4.3405    0.7742   -1.3896 H   0  0  0  0  0  0  0  0  0  0  0  0
   -4.7606   -0.9349   -1.1040 H   0  0  0  0  0  0  0  0  0  0  0  0
   -5.8840    1.4463    0.4635 H   0  0  0  0  0  0  0  0  0  0  0  0
   -6.7504    0.5476   -0.7912 H   0  0  0  0  0  0  0  0  0  0  0  0
   -6.3091   -0.2495    0.7271 H   0  0  0  0  0  0  0  0  0  0  0  0
  1  2  1  0  0  0  0
  2  3  1  0  0  0  0
  3  4  2  0  0  0  0
  4  5  2  0  0  0  0
  4  6  2  0  0  0  0
  6  7  1  0  0  0  0
  7  8  1  0  0  0  0
  4  9  1  0  0  0  0
  9 10  1  0  0  0  0
 10 11  1  0  0  0  0
 11 12  1  0  0  0  0
 12 13  2  0  0  0  0
 12 14  2  0  0  0  0
 14 15  1  0  0  0  0
 15 16  1  0  0  0  0
 12 17  2  0  0  0  0
 17 18  1  0  0  0  0
 18 19  1  0  0  0  0
  1 20  1  0  0  0  0
  1 21  1  0  0  0  0
  1 22  1  0  0  0  0
  2 23  1  0  0  0  0
  2 24  1  0  0  0  0
  7 25  1  0  0  0  0
  7 26  1  0  0  0  0
  8 27  1  0  0  0  0
  8 28  1  0  0  0  0
  8 29  1  0  0  0  0
 10 30  1  0  0  0  0
 10 31  1  0  0  0  0
 15 32  1  0  0  0  0
 15 33  1  0  0  0  0
 16 34  1  0  0  0  0
 16 35  1  0  0  0  0
 16 36  1  0  0  0  0
 18 37  1  0  0  0  0
 18 38  1  0  0  0  0
 19 39  1  0  0  0  0
 19 40  1  0  0  0  0
 19 41  1  0  0  0  0
M  END
