38
 xtb: 6.7.1 (edcfbbe)
C            5.14124925381599       -3.04325301422421       -1.25078815738465
C            4.73663671359881       -2.06907984672471       -0.16975884980236
O            3.27650500288154       -2.01948671547596       -0.03254503005237
C            2.61300107386452       -1.22759541687160       -0.88843449566221
O            3.14674906356624       -0.52609751615702       -1.73055216860993
C            1.12084832001438       -1.35909745921889       -0.71194946738702
C            0.40791321558015       -0.05833690874420       -1.05374688417249
H            0.69402759386546        0.26079367366117       -2.06519177343696
C            0.83470832706712        1.07877343012836       -0.13456659996666
O            1.74650207459654        0.96126962645496        0.66262965236548
O            0.16743977329448        2.20639520072623       -0.37497993926034
C            0.59509252657477        3.40137888134397        0.36866347863496
C           -0.06880668546607        3.47072716841941        1.72238331137614
S           -1.42385427799036       -0.28136492613569       -1.23406018660687
P           -2.20523784920069       -0.18445920074458        0.73839280263956
S           -1.10920176986509       -0.87854161692477        2.17982278421549
O           -2.64827484747886        1.32711580292262        1.03303655079270
C           -3.37686313192951        2.12552443294557        0.05267873396704
O           -3.63818176177310       -0.87377671722136        0.46895669992861
C           -3.74367254474182       -2.32239675618764        0.35853113283612
H            4.75252536835850       -4.04307177845433       -1.03734721256710
H            4.78264882636064       -2.72274559919688       -2.23257645046227
H            6.23379327453404       -3.10063991688990       -1.28635516619542
H            5.10304684145961       -1.05806477575956       -0.36279072451051
H            5.07825336363700       -2.39552838101582        0.81386523692978
H            0.88490257349706       -1.69174328310465        0.29959114130216
H            0.79523483998917       -2.14041689896006       -1.40860246245930
H            1.68482081422110        3.38587709795323        0.44161321376662
H            0.28539612210246        4.22617258818527       -0.27507716166267
H            0.18160317107565        2.60137549636872        2.33657948127596
H            0.28767257634280        4.36861890527443        2.23737826818055
H           -1.15497372930272        3.54020691481384        1.62423774381145
H           -2.70521066681114        2.41723630668068       -0.75796568681758
H           -3.71869146242155        3.00718367566886        0.59481423109767
H           -4.23431432541367        1.57137495062245       -0.33632810954213
H           -3.09487092653719       -2.69584552824843       -0.43845511809822
H           -4.78689929321767       -2.52093080952170        0.11404812236958
H           -3.48201133706056       -2.78570691007270        1.31270689382089
