 xtb: 6.7.1 (edcfbbe)
          04092505203D

 41 40  0     0  0            999 V2000
    2.8450    0.9861   -2.4714 C   0  0  0  0  0  0  0  0  0  0  0  0
    2.0384   -0.2954   -2.4710 C   0  0  0  0  0  0  0  0  0  0  0  0
    1.2953   -0.4834   -1.2496 O   0  0  0  0  0  0  0  0  0  0  0  0
    1.9182   -0.5255    0.2066 P   0  0  0  0  0  0  0  0  0  0  0  0
    2.5319    1.1235    1.0857 S   0  0  0  0  0  0  0  0  0  0  0  0
    3.0686   -1.6063    0.0012 O   0  0  0  0  0  0  0  0  0  0  0  0
    4.1264   -1.7974    0.9560 C   0  0  0  0  0  0  0  0  0  0  0  0
    3.6334   -2.4608    2.2255 C   0  0  0  0  0  0  0  0  0  0  0  0
    0.3913   -1.5591    1.2167 S   0  0  0  0  0  0  0  0  0  0  0  0
   -0.4820   -0.1740    2.0194 C   0  0  0  0  0  0  0  0  0  0  0  0
   -2.1894    0.0116    1.4594 S   0  0  0  0  0  0  0  0  0  0  0  0
   -1.8249    0.7579   -0.4984 P   0  0  0  0  0  0  0  0  0  0  0  0
   -0.4404    2.1292   -0.6640 S   0  0  0  0  0  0  0  0  0  0  0  0
   -3.2755    1.2093   -0.9746 O   0  0  0  0  0  0  0  0  0  0  0  0
   -3.8063    2.5229   -0.7251 C   0  0  0  0  0  0  0  0  0  0  0  0
   -4.0635    2.7744    0.7464 C   0  0  0  0  0  0  0  0  0  0  0  0
   -1.5655   -0.4922   -1.4253 O   0  0  0  0  0  0  0  0  0  0  0  0
   -2.5428   -1.5465   -1.6476 C   0  0  0  0  0  0  0  0  0  0  0  0
   -2.1491   -2.8108   -0.9110 C   0  0  0  0  0  0  0  0  0  0  0  0
    3.6278    0.9401   -1.7150 H   0  0  0  0  0  0  0  0  0  0  0  0
    3.2993    1.1295   -3.4466 H   0  0  0  0  0  0  0  0  0  0  0  0
    2.2001    1.8341   -2.2456 H   0  0  0  0  0  0  0  0  0  0  0  0
    2.6826   -1.1664   -2.6129 H   0  0  0  0  0  0  0  0  0  0  0  0
    1.2599   -0.2742   -3.2362 H   0  0  0  0  0  0  0  0  0  0  0  0
    4.8469   -2.4225    0.4267 H   0  0  0  0  0  0  0  0  0  0  0  0
    4.5700   -0.8217    1.1799 H   0  0  0  0  0  0  0  0  0  0  0  0
    2.9761   -1.7827    2.7673 H   0  0  0  0  0  0  0  0  0  0  0  0
    3.0843   -3.3685    1.9891 H   0  0  0  0  0  0  0  0  0  0  0  0
    4.4833   -2.7045    2.8548 H   0  0  0  0  0  0  0  0  0  0  0  0
    0.0784    0.7463    1.8310 H   0  0  0  0  0  0  0  0  0  0  0  0
   -0.5402   -0.3859    3.0837 H   0  0  0  0  0  0  0  0  0  0  0  0
   -3.1025    3.2598   -1.1243 H   0  0  0  0  0  0  0  0  0  0  0  0
   -4.7306    2.5401   -1.3045 H   0  0  0  0  0  0  0  0  0  0  0  0
   -3.1196    2.8384    1.2854 H   0  0  0  0  0  0  0  0  0  0  0  0
   -4.5950    3.7139    0.8593 H   0  0  0  0  0  0  0  0  0  0  0  0
   -4.6570    1.9689    1.1713 H   0  0  0  0  0  0  0  0  0  0  0  0
   -3.5264   -1.1912   -1.3363 H   0  0  0  0  0  0  0  0  0  0  0  0
   -2.5326   -1.6989   -2.7281 H   0  0  0  0  0  0  0  0  0  0  0  0
   -1.1294   -3.0893   -1.1639 H   0  0  0  0  0  0  0  0  0  0  0  0
   -2.2117   -2.6705    0.1653 H   0  0  0  0  0  0  0  0  0  0  0  0
   -2.8220   -3.6104   -1.2041 H   0  0  0  0  0  0  0  0  0  0  0  0
  1  2  1  0  0  0  0
  2  3  1  0  0  0  0
  3  4  2  0  0  0  0
  4  5  2  0  0  0  0
  4  6  2  0  0  0  0
  6  7  1  0  0  0  0
  7  8  1  0  0  0  0
  4  9  1  0  0  0  0
  9 10  1  0  0  0  0
 10 11  1  0  0  0  0
 11 12  1  0  0  0  0
 12 13  2  0  0  0  0
 12 14  2  0  0  0  0
 14 15  1  0  0  0  0
 15 16  1  0  0  0  0
 12 17  2  0  0  0  0
 17 18  1  0  0  0  0
 18 19  1  0  0  0  0
  1 20  1  0  0  0  0
  1 21  1  0  0  0  0
  1 22  1  0  0  0  0
  2 23  1  0  0  0  0
  2 24  1  0  0  0  0
  7 25  1  0  0  0  0
  7 26  1  0  0  0  0
  8 27  1  0  0  0  0
  8 28  1  0  0  0  0
  8 29  1  0  0  0  0
 10 30  1  0  0  0  0
 10 31  1  0  0  0  0
 15 32  1  0  0  0  0
 15 33  1  0  0  0  0
 16 34  1  0  0  0  0
 16 35  1  0  0  0  0
 16 36  1  0  0  0  0
 18 37  1  0  0  0  0
 18 38  1  0  0  0  0
 19 39  1  0  0  0  0
 19 40  1  0  0  0  0
 19 41  1  0  0  0  0
M  END
