 xtb: 6.7.1 (edcfbbe)
          04092514013D

 41 40  0     0  0            999 V2000
    2.5969   -2.9690   -1.3478 C   0  0  0  0  0  0  0  0  0  0  0  0
    3.4656   -1.8176   -1.8105 C   0  0  0  0  0  0  0  0  0  0  0  0
    3.6177   -0.7860   -0.8070 O   0  0  0  0  0  0  0  0  0  0  0  0
    2.4544    0.0444   -0.1141 P   0  0  0  0  0  0  0  0  0  0  0  0
    3.2149    1.6242    0.7471 S   0  0  0  0  0  0  0  0  0  0  0  0
    1.6736   -0.9576    0.8567 O   0  0  0  0  0  0  0  0  0  0  0  0
    2.0683   -1.1738    2.2261 C   0  0  0  0  0  0  0  0  0  0  0  0
    1.0986   -0.4883    3.1673 C   0  0  0  0  0  0  0  0  0  0  0  0
    1.0041    0.3093   -1.6225 S   0  0  0  0  0  0  0  0  0  0  0  0
    0.2681    1.8389   -0.9880 C   0  0  0  0  0  0  0  0  0  0  0  0
   -0.6025    1.6457    0.5917 S   0  0  0  0  0  0  0  0  0  0  0  0
   -2.0688    0.2741   -0.0668 P   0  0  0  0  0  0  0  0  0  0  0  0
   -2.7761    0.5014   -1.8843 S   0  0  0  0  0  0  0  0  0  0  0  0
   -3.1572    0.2904    1.0922 O   0  0  0  0  0  0  0  0  0  0  0  0
   -4.3427    1.1040    1.0566 C   0  0  0  0  0  0  0  0  0  0  0  0
   -4.0496    2.5663    1.3256 C   0  0  0  0  0  0  0  0  0  0  0  0
   -1.3106   -1.0843    0.2311 O   0  0  0  0  0  0  0  0  0  0  0  0
   -1.6178   -2.3145   -0.4530 C   0  0  0  0  0  0  0  0  0  0  0  0
   -2.9396   -2.8994   -0.0004 C   0  0  0  0  0  0  0  0  0  0  0  0
    2.9834   -3.3872   -0.4216 H   0  0  0  0  0  0  0  0  0  0  0  0
    1.5765   -2.6269   -1.1863 H   0  0  0  0  0  0  0  0  0  0  0  0
    2.5940   -3.7386   -2.1135 H   0  0  0  0  0  0  0  0  0  0  0  0
    3.0531   -1.3570   -2.7116 H   0  0  0  0  0  0  0  0  0  0  0  0
    4.4923   -2.1381   -1.9955 H   0  0  0  0  0  0  0  0  0  0  0  0
    2.0535   -2.2575    2.3593 H   0  0  0  0  0  0  0  0  0  0  0  0
    3.0866   -0.7998    2.3731 H   0  0  0  0  0  0  0  0  0  0  0  0
    1.1585    0.5913    3.0454 H   0  0  0  0  0  0  0  0  0  0  0  0
    0.0823   -0.8070    2.9491 H   0  0  0  0  0  0  0  0  0  0  0  0
    1.3490   -0.7468    4.1912 H   0  0  0  0  0  0  0  0  0  0  0  0
   -0.4287    2.1730   -1.7561 H   0  0  0  0  0  0  0  0  0  0  0  0
    1.0521    2.5754   -0.8128 H   0  0  0  0  0  0  0  0  0  0  0  0
   -4.8186    0.9815    0.0781 H   0  0  0  0  0  0  0  0  0  0  0  0
   -4.9771    0.6754    1.8340 H   0  0  0  0  0  0  0  0  0  0  0  0
   -3.4664    2.9908    0.5098 H   0  0  0  0  0  0  0  0  0  0  0  0
   -4.9876    3.1072    1.4063 H   0  0  0  0  0  0  0  0  0  0  0  0
   -3.4897    2.6776    2.2505 H   0  0  0  0  0  0  0  0  0  0  0  0
   -1.6272   -2.1200   -1.5308 H   0  0  0  0  0  0  0  0  0  0  0  0
   -0.7818   -2.9694   -0.2018 H   0  0  0  0  0  0  0  0  0  0  0  0
   -3.0801   -3.8692   -0.4677 H   0  0  0  0  0  0  0  0  0  0  0  0
   -2.9513   -3.0133    1.0804 H   0  0  0  0  0  0  0  0  0  0  0  0
   -3.7573   -2.2428   -0.2947 H   0  0  0  0  0  0  0  0  0  0  0  0
  1  2  1  0  0  0  0
  2  3  1  0  0  0  0
  3  4  2  0  0  0  0
  4  5  2  0  0  0  0
  4  6  1  0  0  0  0
  6  7  1  0  0  0  0
  7  8  1  0  0  0  0
  4  9  1  0  0  0  0
  9 10  1  0  0  0  0
 10 11  1  0  0  0  0
 11 12  1  0  0  0  0
 12 13  2  0  0  0  0
 12 14  2  0  0  0  0
 14 15  1  0  0  0  0
 15 16  1  0  0  0  0
 12 17  2  0  0  0  0
 17 18  1  0  0  0  0
 18 19  1  0  0  0  0
  1 20  1  0  0  0  0
  1 21  1  0  0  0  0
  1 22  1  0  0  0  0
  2 23  1  0  0  0  0
  2 24  1  0  0  0  0
  7 25  1  0  0  0  0
  7 26  1  0  0  0  0
  8 27  1  0  0  0  0
  8 28  1  0  0  0  0
  8 29  1  0  0  0  0
 10 30  1  0  0  0  0
 10 31  1  0  0  0  0
 15 32  1  0  0  0  0
 15 33  1  0  0  0  0
 16 34  1  0  0  0  0
 16 35  1  0  0  0  0
 16 36  1  0  0  0  0
 18 37  1  0  0  0  0
 18 38  1  0  0  0  0
 19 39  1  0  0  0  0
 19 40  1  0  0  0  0
 19 41  1  0  0  0  0
M  END
