19
 xtb: 6.7.1 (edcfbbe)
C           -2.55614316862137       -0.72041727448636        0.00041485483656
C           -1.23021624883379       -0.00668601246446       -0.00088194374540
C           -1.21292220934934        1.39337204894605       -0.00155028920291
C           -0.02171097361502        2.10640313181798       -0.00128385251606
C            1.19032229777242        1.41782398424082       -0.00150057911682
C            1.22442159335220        0.02573188478658       -0.00082656339250
C            0.00360753479094       -0.67048394132598        0.00057121430960
O            0.10894076157882       -2.04764035995755        0.00376277201503
C            2.51954808236440       -0.73180632843834        0.00016169896810
H           -3.15047006952332       -0.42274155489628       -0.86939039143539
H           -2.48490288316306       -1.81067066904146       -0.02210010143866
H           -3.13183580425613       -0.45734222960829        0.89378829248899
H           -2.16283195424149        1.92188809006171       -0.00235902317283
H           -0.03403534333730        3.19156934308628       -0.00169645305516
H            2.12935928290434        1.96439655736206       -0.00242684057725
H           -0.77369048620584       -2.43981114739431        0.00339005636823
H            2.61364095901880       -1.36198838472159        0.89171959289198
H            2.59447733824988       -1.39784189506642       -0.86649934133672
H            3.36516895629214       -0.04071181486413       -0.02248375049368
