 xtb: 6.7.1 (edcfbbe)
          04092505203D

 41 40  0     0  0            999 V2000
    4.3954   -1.4300   -1.3135 C   0  0  0  0  0  0  0  0  0  0  0  0
    4.5719    0.0458   -1.0209 C   0  0  0  0  0  0  0  0  0  0  0  0
    3.6094    0.5376   -0.0729 O   0  0  0  0  0  0  0  0  0  0  0  0
    2.0499    0.5878   -0.3906 P   0  0  0  0  0  0  0  0  0  0  0  0
    1.6379    1.0563   -2.2475 S   0  0  0  0  0  0  0  0  0  0  0  0
    1.5488    1.6427    0.6750 O   0  0  0  0  0  0  0  0  0  0  0  0
    2.1941    1.9068    1.9469 C   0  0  0  0  0  0  0  0  0  0  0  0
    2.3076    0.6738    2.8190 C   0  0  0  0  0  0  0  0  0  0  0  0
    1.3129   -1.3036    0.2798 S   0  0  0  0  0  0  0  0  0  0  0  0
    0.1985   -1.7368   -1.0876 C   0  0  0  0  0  0  0  0  0  0  0  0
   -1.4741   -2.1581   -0.5313 S   0  0  0  0  0  0  0  0  0  0  0  0
   -2.0846   -0.2993    0.2360 P   0  0  0  0  0  0  0  0  0  0  0  0
   -1.4884    1.3504   -0.6589 S   0  0  0  0  0  0  0  0  0  0  0  0
   -1.6167   -0.4626    1.7412 O   0  0  0  0  0  0  0  0  0  0  0  0
   -1.5429    0.6566    2.6472 C   0  0  0  0  0  0  0  0  0  0  0  0
   -2.9081    1.2298    2.9641 C   0  0  0  0  0  0  0  0  0  0  0  0
   -3.6620   -0.4518    0.3627 O   0  0  0  0  0  0  0  0  0  0  0  0
   -4.5638   -0.0763   -0.6912 C   0  0  0  0  0  0  0  0  0  0  0  0
   -4.4348   -0.9768   -1.9029 C   0  0  0  0  0  0  0  0  0  0  0  0
    4.3677   -2.0020   -0.3896 H   0  0  0  0  0  0  0  0  0  0  0  0
    3.4654   -1.5886   -1.8576 H   0  0  0  0  0  0  0  0  0  0  0  0
    5.2223   -1.7732   -1.9267 H   0  0  0  0  0  0  0  0  0  0  0  0
    4.4787    0.6311   -1.9409 H   0  0  0  0  0  0  0  0  0  0  0  0
    5.5313    0.2510   -0.5440 H   0  0  0  0  0  0  0  0  0  0  0  0
    3.1792    2.3313    1.7439 H   0  0  0  0  0  0  0  0  0  0  0  0
    1.5506    2.6647    2.3974 H   0  0  0  0  0  0  0  0  0  0  0  0
    2.9734   -0.0534    2.3587 H   0  0  0  0  0  0  0  0  0  0  0  0
    2.7100    0.9622    3.7851 H   0  0  0  0  0  0  0  0  0  0  0  0
    1.3345    0.2106    2.9592 H   0  0  0  0  0  0  0  0  0  0  0  0
    0.5745   -2.6328   -1.5752 H   0  0  0  0  0  0  0  0  0  0  0  0
    0.1648   -0.8935   -1.7842 H   0  0  0  0  0  0  0  0  0  0  0  0
   -1.0681    0.2390    3.5366 H   0  0  0  0  0  0  0  0  0  0  0  0
   -0.9006    1.4210    2.1966 H   0  0  0  0  0  0  0  0  0  0  0  0
   -3.5759    0.4412    3.3002 H   0  0  0  0  0  0  0  0  0  0  0  0
   -2.8101    1.9800    3.7427 H   0  0  0  0  0  0  0  0  0  0  0  0
   -3.3314    1.6954    2.0750 H   0  0  0  0  0  0  0  0  0  0  0  0
   -5.5501   -0.1566   -0.2324 H   0  0  0  0  0  0  0  0  0  0  0  0
   -4.3618    0.9647   -0.9643 H   0  0  0  0  0  0  0  0  0  0  0  0
   -5.2187   -0.7372   -2.6143 H   0  0  0  0  0  0  0  0  0  0  0  0
   -3.4676   -0.8224   -2.3800 H   0  0  0  0  0  0  0  0  0  0  0  0
   -4.5174   -2.0200   -1.6088 H   0  0  0  0  0  0  0  0  0  0  0  0
  1  2  1  0  0  0  0
  2  3  1  0  0  0  0
  3  4  2  0  0  0  0
  4  5  2  0  0  0  0
  4  6  2  0  0  0  0
  6  7  1  0  0  0  0
  7  8  1  0  0  0  0
  4  9  1  0  0  0  0
  9 10  1  0  0  0  0
 10 11  1  0  0  0  0
 11 12  1  0  0  0  0
 12 13  2  0  0  0  0
 12 14  2  0  0  0  0
 14 15  1  0  0  0  0
 15 16  1  0  0  0  0
 12 17  2  0  0  0  0
 17 18  1  0  0  0  0
 18 19  1  0  0  0  0
  1 20  1  0  0  0  0
  1 21  1  0  0  0  0
  1 22  1  0  0  0  0
  2 23  1  0  0  0  0
  2 24  1  0  0  0  0
  7 25  1  0  0  0  0
  7 26  1  0  0  0  0
  8 27  1  0  0  0  0
  8 28  1  0  0  0  0
  8 29  1  0  0  0  0
 10 30  1  0  0  0  0
 10 31  1  0  0  0  0
 15 32  1  0  0  0  0
 15 33  1  0  0  0  0
 16 34  1  0  0  0  0
 16 35  1  0  0  0  0
 16 36  1  0  0  0  0
 18 37  1  0  0  0  0
 18 38  1  0  0  0  0
 19 39  1  0  0  0  0
 19 40  1  0  0  0  0
 19 41  1  0  0  0  0
M  END
