 xtb: 6.7.1 (edcfbbe)
          04032520013D

 20 20  0     0  0            999 V2000
    0.6276    1.6921   -0.0104 C   0  0  0  0  0  0  0  0  0  0  0  0
    1.4055    0.3963   -0.2518 C   0  0  0  0  0  0  0  0  0  0  0  0
    1.6134    0.2884   -1.3283 H   0  0  0  0  0  0  0  0  0  0  0  0
    0.5428   -0.7943    0.1872 C   0  0  0  0  0  0  0  0  0  0  0  0
    0.3733   -0.7257    1.2721 H   0  0  0  0  0  0  0  0  0  0  0  0
   -0.8121   -0.7400   -0.5314 C   0  0  0  0  0  0  0  0  0  0  0  0
   -0.6409   -0.8757   -1.6063 H   0  0  0  0  0  0  0  0  0  0  0  0
   -1.4647    0.6423   -0.2955 C   0  0  0  0  0  0  0  0  0  0  0  0
   -2.3510    0.7613   -0.9410 H   0  0  0  0  0  0  0  0  0  0  0  0
   -0.6184    1.6798   -0.6897 O   0  0  0  0  0  0  0  0  0  0  0  0
   -1.8326    0.7836    1.0472 O   0  0  0  0  0  0  0  0  0  0  0  0
   -1.6211   -1.7612    0.0047 O   0  0  0  0  0  0  0  0  0  0  0  0
    1.2452   -1.9748   -0.1213 O   0  0  0  0  0  0  0  0  0  0  0  0
    2.6049    0.4600    0.4743 O   0  0  0  0  0  0  0  0  0  0  0  0
    1.1737    2.5455   -0.4091 H   0  0  0  0  0  0  0  0  0  0  0  0
    0.4751    1.8259    1.0662 H   0  0  0  0  0  0  0  0  0  0  0  0
   -2.0949   -0.0914    1.3829 H   0  0  0  0  0  0  0  0  0  0  0  0
   -2.3643   -1.9499   -0.5855 H   0  0  0  0  0  0  0  0  0  0  0  0
    0.6969   -2.7356    0.1202 H   0  0  0  0  0  0  0  0  0  0  0  0
    3.0424   -0.4032    0.4124 H   0  0  0  0  0  0  0  0  0  0  0  0
  1  2  1  0  0  0  0
  2  3  1  0  0  0  0
  2  4  1  0  0  0  0
  4  5  1  0  0  0  0
  4  6  1  0  0  0  0
  6  7  1  0  0  0  0
  6  8  1  0  0  0  0
  8  9  1  0  0  0  0
  1 10  1  0  0  0  0
  8 10  1  0  0  0  0
  8 11  1  0  0  0  0
  6 12  1  0  0  0  0
  4 13  1  0  0  0  0
  2 14  1  0  0  0  0
  1 15  1  0  0  0  0
  1 16  1  0  0  0  0
 11 17  1  0  0  0  0
 12 18  1  0  0  0  0
 13 19  1  0  0  0  0
 14 20  1  0  0  0  0
M  END
