 xtb: 6.7.1 (edcfbbe)
          04092505213D

 41 40  0     0  0            999 V2000
    3.7130   -2.2605    1.6067 C   0  0  0  0  0  0  0  0  0  0  0  0
    2.3311   -2.2138    0.9879 C   0  0  0  0  0  0  0  0  0  0  0  0
    1.8903   -0.8540    0.8012 O   0  0  0  0  0  0  0  0  0  0  0  0
    2.4695    0.0685   -0.3714 P   0  0  0  0  0  0  0  0  0  0  0  0
    3.1446   -0.8896   -1.9339 S   0  0  0  0  0  0  0  0  0  0  0  0
    3.5834    0.9896    0.2753 O   0  0  0  0  0  0  0  0  0  0  0  0
    3.4155    1.6961    1.5293 C   0  0  0  0  0  0  0  0  0  0  0  0
    3.0074    3.1359    1.2917 C   0  0  0  0  0  0  0  0  0  0  0  0
    0.8018    1.3322   -0.6882 S   0  0  0  0  0  0  0  0  0  0  0  0
   -0.1318    0.1515   -1.6967 C   0  0  0  0  0  0  0  0  0  0  0  0
   -1.0056   -1.0796   -0.7144 S   0  0  0  0  0  0  0  0  0  0  0  0
   -2.5178    0.2524    0.0089 P   0  0  0  0  0  0  0  0  0  0  0  0
   -3.0862    1.5896   -1.3076 S   0  0  0  0  0  0  0  0  0  0  0  0
   -1.9878    0.9999    1.2903 O   0  0  0  0  0  0  0  0  0  0  0  0
   -1.8870    0.4634    2.6322 C   0  0  0  0  0  0  0  0  0  0  0  0
   -0.9522   -0.7243    2.7218 C   0  0  0  0  0  0  0  0  0  0  0  0
   -3.6081   -0.7213    0.6271 O   0  0  0  0  0  0  0  0  0  0  0  0
   -4.1712   -1.8683   -0.0366 C   0  0  0  0  0  0  0  0  0  0  0  0
   -4.8019   -1.5243   -1.3693 C   0  0  0  0  0  0  0  0  0  0  0  0
    3.7231   -1.7367    2.5589 H   0  0  0  0  0  0  0  0  0  0  0  0
    4.0027   -3.2948    1.7623 H   0  0  0  0  0  0  0  0  0  0  0  0
    4.4310   -1.7903    0.9348 H   0  0  0  0  0  0  0  0  0  0  0  0
    1.5742   -2.6541    1.6381 H   0  0  0  0  0  0  0  0  0  0  0  0
    2.3245   -2.7178    0.0168 H   0  0  0  0  0  0  0  0  0  0  0  0
    2.6774    1.1699    2.1389 H   0  0  0  0  0  0  0  0  0  0  0  0
    4.3975    1.6385    2.0021 H   0  0  0  0  0  0  0  0  0  0  0  0
    3.7220    3.6214    0.6329 H   0  0  0  0  0  0  0  0  0  0  0  0
    2.0217    3.1860    0.8324 H   0  0  0  0  0  0  0  0  0  0  0  0
    2.9830    3.6599    2.2421 H   0  0  0  0  0  0  0  0  0  0  0  0
    0.5565   -0.3808   -2.3546 H   0  0  0  0  0  0  0  0  0  0  0  0
   -0.8593    0.7335   -2.2651 H   0  0  0  0  0  0  0  0  0  0  0  0
   -1.5145    1.3125    3.2076 H   0  0  0  0  0  0  0  0  0  0  0  0
   -2.8913    0.1980    2.9676 H   0  0  0  0  0  0  0  0  0  0  0  0
   -0.8281   -0.9981    3.7651 H   0  0  0  0  0  0  0  0  0  0  0  0
   -1.3619   -1.5733    2.1778 H   0  0  0  0  0  0  0  0  0  0  0  0
    0.0176   -0.4741    2.2989 H   0  0  0  0  0  0  0  0  0  0  0  0
   -3.3795   -2.6115   -0.1654 H   0  0  0  0  0  0  0  0  0  0  0  0
   -4.9146   -2.2346    0.6736 H   0  0  0  0  0  0  0  0  0  0  0  0
   -5.5366   -0.7317   -1.2488 H   0  0  0  0  0  0  0  0  0  0  0  0
   -4.0410   -1.1815   -2.0688 H   0  0  0  0  0  0  0  0  0  0  0  0
   -5.2862   -2.4055   -1.7775 H   0  0  0  0  0  0  0  0  0  0  0  0
  1  2  1  0  0  0  0
  2  3  1  0  0  0  0
  3  4  1  0  0  0  0
  4  5  2  0  0  0  0
  4  6  2  0  0  0  0
  6  7  1  0  0  0  0
  7  8  1  0  0  0  0
  4  9  1  0  0  0  0
  9 10  1  0  0  0  0
 10 11  1  0  0  0  0
 11 12  1  0  0  0  0
 12 13  2  0  0  0  0
 12 14  2  0  0  0  0
 14 15  1  0  0  0  0
 15 16  1  0  0  0  0
 12 17  2  0  0  0  0
 17 18  1  0  0  0  0
 18 19  1  0  0  0  0
  1 20  1  0  0  0  0
  1 21  1  0  0  0  0
  1 22  1  0  0  0  0
  2 23  1  0  0  0  0
  2 24  1  0  0  0  0
  7 25  1  0  0  0  0
  7 26  1  0  0  0  0
  8 27  1  0  0  0  0
  8 28  1  0  0  0  0
  8 29  1  0  0  0  0
 10 30  1  0  0  0  0
 10 31  1  0  0  0  0
 15 32  1  0  0  0  0
 15 33  1  0  0  0  0
 16 34  1  0  0  0  0
 16 35  1  0  0  0  0
 16 36  1  0  0  0  0
 18 37  1  0  0  0  0
 18 38  1  0  0  0  0
 19 39  1  0  0  0  0
 19 40  1  0  0  0  0
 19 41  1  0  0  0  0
M  END
