 xtb: 6.7.1 (edcfbbe)
          04092505213D

 41 40  0     0  0            999 V2000
    4.2059    0.3047   -2.5184 C   0  0  0  0  0  0  0  0  0  0  0  0
    4.0477   -1.1253   -2.0416 C   0  0  0  0  0  0  0  0  0  0  0  0
    3.9322   -1.2248   -0.6121 O   0  0  0  0  0  0  0  0  0  0  0  0
    2.8567   -0.4718    0.2712 P   0  0  0  0  0  0  0  0  0  0  0  0
    3.2062    1.4030    0.7541 S   0  0  0  0  0  0  0  0  0  0  0  0
    2.9444   -1.4809    1.4863 O   0  0  0  0  0  0  0  0  0  0  0  0
    2.5303   -1.1341    2.8180 C   0  0  0  0  0  0  0  0  0  0  0  0
    1.0239   -1.2052    2.9711 C   0  0  0  0  0  0  0  0  0  0  0  0
    1.0148   -0.8434   -0.7457 S   0  0  0  0  0  0  0  0  0  0  0  0
    0.2599    0.8043   -0.6361 C   0  0  0  0  0  0  0  0  0  0  0  0
   -1.0312    0.9358    0.6223 S   0  0  0  0  0  0  0  0  0  0  0  0
   -2.7519    0.5540   -0.5907 P   0  0  0  0  0  0  0  0  0  0  0  0
   -2.4138    0.1634   -2.4788 S   0  0  0  0  0  0  0  0  0  0  0  0
   -3.6516    1.8378   -0.4279 O   0  0  0  0  0  0  0  0  0  0  0  0
   -3.8009    2.6468    0.7636 C   0  0  0  0  0  0  0  0  0  0  0  0
   -4.1806    1.8339    1.9816 C   0  0  0  0  0  0  0  0  0  0  0  0
   -3.6077   -0.5515    0.1695 O   0  0  0  0  0  0  0  0  0  0  0  0
   -3.4127   -1.9609   -0.0203 C   0  0  0  0  0  0  0  0  0  0  0  0
   -2.1734   -2.4641    0.6929 C   0  0  0  0  0  0  0  0  0  0  0  0
    4.3945    0.3108   -3.5872 H   0  0  0  0  0  0  0  0  0  0  0  0
    3.2987    0.8736   -2.3170 H   0  0  0  0  0  0  0  0  0  0  0  0
    5.0347    0.7855   -2.0036 H   0  0  0  0  0  0  0  0  0  0  0  0
    4.9346   -1.7196   -2.2686 H   0  0  0  0  0  0  0  0  0  0  0  0
    3.1675   -1.5905   -2.4950 H   0  0  0  0  0  0  0  0  0  0  0  0
    3.0324   -1.8687    3.4494 H   0  0  0  0  0  0  0  0  0  0  0  0
    2.8998   -0.1303    3.0543 H   0  0  0  0  0  0  0  0  0  0  0  0
    0.5481   -0.4142    2.3926 H   0  0  0  0  0  0  0  0  0  0  0  0
    0.6593   -2.1685    2.6236 H   0  0  0  0  0  0  0  0  0  0  0  0
    0.7632   -1.0764    4.0165 H   0  0  0  0  0  0  0  0  0  0  0  0
   -0.1811    1.0175   -1.6102 H   0  0  0  0  0  0  0  0  0  0  0  0
    1.0375    1.5249   -0.3711 H   0  0  0  0  0  0  0  0  0  0  0  0
   -2.8625    3.1821    0.9308 H   0  0  0  0  0  0  0  0  0  0  0  0
   -4.5851    3.3529    0.4866 H   0  0  0  0  0  0  0  0  0  0  0  0
   -3.3692    1.1586    2.2476 H   0  0  0  0  0  0  0  0  0  0  0  0
   -4.3661    2.5068    2.8131 H   0  0  0  0  0  0  0  0  0  0  0  0
   -5.0754    1.2504    1.7819 H   0  0  0  0  0  0  0  0  0  0  0  0
   -4.3193   -2.4079    0.3908 H   0  0  0  0  0  0  0  0  0  0  0  0
   -3.3535   -2.1660   -1.0943 H   0  0  0  0  0  0  0  0  0  0  0  0
   -2.1815   -2.1428    1.7314 H   0  0  0  0  0  0  0  0  0  0  0  0
   -2.1534   -3.5484    0.6518 H   0  0  0  0  0  0  0  0  0  0  0  0
   -1.2771   -2.0819    0.2071 H   0  0  0  0  0  0  0  0  0  0  0  0
  1  2  1  0  0  0  0
  2  3  1  0  0  0  0
  3  4  2  0  0  0  0
  4  5  2  0  0  0  0
  4  6  2  0  0  0  0
  6  7  1  0  0  0  0
  7  8  1  0  0  0  0
  4  9  1  0  0  0  0
  9 10  1  0  0  0  0
 10 11  1  0  0  0  0
 11 12  1  0  0  0  0
 12 13  2  0  0  0  0
 12 14  2  0  0  0  0
 14 15  1  0  0  0  0
 15 16  1  0  0  0  0
 12 17  2  0  0  0  0
 17 18  1  0  0  0  0
 18 19  1  0  0  0  0
  1 20  1  0  0  0  0
  1 21  1  0  0  0  0
  1 22  1  0  0  0  0
  2 23  1  0  0  0  0
  2 24  1  0  0  0  0
  7 25  1  0  0  0  0
  7 26  1  0  0  0  0
  8 27  1  0  0  0  0
  8 28  1  0  0  0  0
  8 29  1  0  0  0  0
 10 30  1  0  0  0  0
 10 31  1  0  0  0  0
 15 32  1  0  0  0  0
 15 33  1  0  0  0  0
 16 34  1  0  0  0  0
 16 35  1  0  0  0  0
 16 36  1  0  0  0  0
 18 37  1  0  0  0  0
 18 38  1  0  0  0  0
 19 39  1  0  0  0  0
 19 40  1  0  0  0  0
 19 41  1  0  0  0  0
M  END
