 xtb: 6.7.1 (edcfbbe)
          04092505213D

 41 40  0     0  0            999 V2000
    1.9999    0.6691   -3.1246 C   0  0  0  0  0  0  0  0  0  0  0  0
    1.5723   -0.6411   -2.4934 C   0  0  0  0  0  0  0  0  0  0  0  0
    2.4581   -1.0275   -1.4313 O   0  0  0  0  0  0  0  0  0  0  0  0
    2.3426   -0.5524    0.0733 P   0  0  0  0  0  0  0  0  0  0  0  0
    2.6031    1.3444    0.5166 S   0  0  0  0  0  0  0  0  0  0  0  0
    3.4917   -1.5099    0.5910 O   0  0  0  0  0  0  0  0  0  0  0  0
    4.2213   -1.2556    1.8016 C   0  0  0  0  0  0  0  0  0  0  0  0
    3.3571   -1.4404    3.0335 C   0  0  0  0  0  0  0  0  0  0  0  0
    0.5104   -1.4297    0.7258 S   0  0  0  0  0  0  0  0  0  0  0  0
   -0.0867   -0.1179    1.8482 C   0  0  0  0  0  0  0  0  0  0  0  0
   -1.8900    0.0079    1.8563 S   0  0  0  0  0  0  0  0  0  0  0  0
   -2.1822    0.5285   -0.1575 P   0  0  0  0  0  0  0  0  0  0  0  0
   -0.8379    1.6558   -1.0482 S   0  0  0  0  0  0  0  0  0  0  0  0
   -3.6603    1.1144   -0.2286 O   0  0  0  0  0  0  0  0  0  0  0  0
   -3.9485    2.5131   -0.0616 C   0  0  0  0  0  0  0  0  0  0  0  0
   -3.6653    2.9871    1.3492 C   0  0  0  0  0  0  0  0  0  0  0  0
   -2.3911   -0.9161   -0.7674 O   0  0  0  0  0  0  0  0  0  0  0  0
   -2.5134   -1.1499   -2.1886 C   0  0  0  0  0  0  0  0  0  0  0  0
   -2.0523   -2.5658   -2.4688 C   0  0  0  0  0  0  0  0  0  0  0  0
    1.8754    1.4870   -2.4168 H   0  0  0  0  0  0  0  0  0  0  0  0
    3.0429    0.6170   -3.4239 H   0  0  0  0  0  0  0  0  0  0  0  0
    1.3813    0.8680   -3.9938 H   0  0  0  0  0  0  0  0  0  0  0  0
    1.6350   -1.4650   -3.2072 H   0  0  0  0  0  0  0  0  0  0  0  0
    0.5511   -0.5660   -2.1078 H   0  0  0  0  0  0  0  0  0  0  0  0
    5.0383   -1.9775    1.7698 H   0  0  0  0  0  0  0  0  0  0  0  0
    4.6222   -0.2376    1.7627 H   0  0  0  0  0  0  0  0  0  0  0  0
    2.6109   -0.6481    3.0787 H   0  0  0  0  0  0  0  0  0  0  0  0
    2.8552   -2.4043    3.0002 H   0  0  0  0  0  0  0  0  0  0  0  0
    3.9786   -1.3876    3.9216 H   0  0  0  0  0  0  0  0  0  0  0  0
    0.3593    0.8303    1.5325 H   0  0  0  0  0  0  0  0  0  0  0  0
    0.1882   -0.3635    2.8712 H   0  0  0  0  0  0  0  0  0  0  0  0
   -3.3513    3.0775   -0.7852 H   0  0  0  0  0  0  0  0  0  0  0  0
   -5.0074    2.5936   -0.3106 H   0  0  0  0  0  0  0  0  0  0  0  0
   -4.0108    4.0098    1.4616 H   0  0  0  0  0  0  0  0  0  0  0  0
   -4.1724    2.3510    2.0702 H   0  0  0  0  0  0  0  0  0  0  0  0
   -2.5940    2.9539    1.5451 H   0  0  0  0  0  0  0  0  0  0  0  0
   -3.5617   -1.0077   -2.4604 H   0  0  0  0  0  0  0  0  0  0  0  0
   -1.9027   -0.4115   -2.7210 H   0  0  0  0  0  0  0  0  0  0  0  0
   -2.1337   -2.7647   -3.5324 H   0  0  0  0  0  0  0  0  0  0  0  0
   -1.0194   -2.6944   -2.1551 H   0  0  0  0  0  0  0  0  0  0  0  0
   -2.6703   -3.2696   -1.9195 H   0  0  0  0  0  0  0  0  0  0  0  0
  1  2  1  0  0  0  0
  2  3  1  0  0  0  0
  3  4  2  0  0  0  0
  4  5  2  0  0  0  0
  4  6  2  0  0  0  0
  6  7  1  0  0  0  0
  7  8  1  0  0  0  0
  4  9  1  0  0  0  0
  9 10  1  0  0  0  0
 10 11  1  0  0  0  0
 11 12  1  0  0  0  0
 12 13  2  0  0  0  0
 12 14  2  0  0  0  0
 14 15  1  0  0  0  0
 15 16  1  0  0  0  0
 12 17  2  0  0  0  0
 17 18  1  0  0  0  0
 18 19  1  0  0  0  0
  1 20  1  0  0  0  0
  1 21  1  0  0  0  0
  1 22  1  0  0  0  0
  2 23  1  0  0  0  0
  2 24  1  0  0  0  0
  7 25  1  0  0  0  0
  7 26  1  0  0  0  0
  8 27  1  0  0  0  0
  8 28  1  0  0  0  0
  8 29  1  0  0  0  0
 10 30  1  0  0  0  0
 10 31  1  0  0  0  0
 15 32  1  0  0  0  0
 15 33  1  0  0  0  0
 16 34  1  0  0  0  0
 16 35  1  0  0  0  0
 16 36  1  0  0  0  0
 18 37  1  0  0  0  0
 18 38  1  0  0  0  0
 19 39  1  0  0  0  0
 19 40  1  0  0  0  0
 19 41  1  0  0  0  0
M  END
