 xtb: 6.7.1 (edcfbbe)
          04092507313D

 38 37  0     0  0            999 V2000
    4.6996   -3.3045   -2.1055 C   0  0  0  0  0  0  0  0  0  0  0  0
    3.7030   -3.6879   -1.0229 C   0  0  0  0  0  0  0  0  0  0  0  0
    3.3503   -2.5459   -0.2183 O   0  0  0  0  0  0  0  0  0  0  0  0
    2.3745   -1.7621   -0.6335 C   0  0  0  0  0  0  0  0  0  0  0  0
    1.7213   -1.9438   -1.6361 O   0  0  0  0  0  0  0  0  0  0  0  0
    2.1795   -0.5925    0.3138 C   0  0  0  0  0  0  0  0  0  0  0  0
    0.8090    0.0311    0.1108 C   0  0  0  0  0  0  0  0  0  0  0  0
    0.6259    0.1640   -0.9641 H   0  0  0  0  0  0  0  0  0  0  0  0
    0.6229    1.3805    0.7708 C   0  0  0  0  0  0  0  0  0  0  0  0
   -0.4278    1.6945    1.2971 O   0  0  0  0  0  0  0  0  0  0  0  0
    1.6763    2.1406    0.6814 O   0  0  0  0  0  0  0  0  0  0  0  0
    1.5802    3.5052    1.1500 C   0  0  0  0  0  0  0  0  0  0  0  0
    1.0312    4.4023    0.0534 C   0  0  0  0  0  0  0  0  0  0  0  0
   -0.5104   -1.0711    0.7427 S   0  0  0  0  0  0  0  0  0  0  0  0
   -2.1776    0.1224    0.2048 P   0  0  0  0  0  0  0  0  0  0  0  0
   -1.9844    1.4058   -1.2737 S   0  0  0  0  0  0  0  0  0  0  0  0
   -3.2263   -1.0387   -0.1529 O   0  0  0  0  0  0  0  0  0  0  0  0
   -3.0480   -1.8532   -1.3130 C   0  0  0  0  0  0  0  0  0  0  0  0
   -2.9616    0.5713    1.5054 O   0  0  0  0  0  0  0  0  0  0  0  0
   -3.1331    1.9186    1.9520 C   0  0  0  0  0  0  0  0  0  0  0  0
    4.9993   -4.1948   -2.6484 H   0  0  0  0  0  0  0  0  0  0  0  0
    4.2442   -2.6042   -2.8020 H   0  0  0  0  0  0  0  0  0  0  0  0
    5.5770   -2.8436   -1.6606 H   0  0  0  0  0  0  0  0  0  0  0  0
    4.1359   -4.3951   -0.3156 H   0  0  0  0  0  0  0  0  0  0  0  0
    2.7905   -4.0988   -1.4638 H   0  0  0  0  0  0  0  0  0  0  0  0
    2.9479    0.1530    0.0966 H   0  0  0  0  0  0  0  0  0  0  0  0
    2.3110   -0.9425    1.3372 H   0  0  0  0  0  0  0  0  0  0  0  0
    0.9368    3.5274    2.0330 H   0  0  0  0  0  0  0  0  0  0  0  0
    2.6034    3.7725    1.4122 H   0  0  0  0  0  0  0  0  0  0  0  0
    1.6749    4.3660   -0.8208 H   0  0  0  0  0  0  0  0  0  0  0  0
    0.0338    4.0761   -0.2369 H   0  0  0  0  0  0  0  0  0  0  0  0
    0.9759    5.4230    0.4166 H   0  0  0  0  0  0  0  0  0  0  0  0
   -3.9334   -2.4810   -1.3682 H   0  0  0  0  0  0  0  0  0  0  0  0
   -2.1501   -2.4659   -1.2162 H   0  0  0  0  0  0  0  0  0  0  0  0
   -2.9688   -1.2256   -2.2030 H   0  0  0  0  0  0  0  0  0  0  0  0
   -4.1588    1.9888    2.3076 H   0  0  0  0  0  0  0  0  0  0  0  0
   -2.9664    2.6172    1.1306 H   0  0  0  0  0  0  0  0  0  0  0  0
   -2.4267    2.1201    2.7547 H   0  0  0  0  0  0  0  0  0  0  0  0
  1  2  1  0  0  0  0
  2  3  1  0  0  0  0
  3  4  1  0  0  0  0
  4  5  2  0  0  0  0
  4  6  1  0  0  0  0
  6  7  1  0  0  0  0
  7  8  1  0  0  0  0
  7  9  1  0  0  0  0
  9 10  2  0  0  0  0
  9 11  4  0  0  0  0
 11 12  1  0  0  0  0
 12 13  1  0  0  0  0
  7 14  1  0  0  0  0
 14 15  1  0  0  0  0
 15 16  2  0  0  0  0
 15 17  1  0  0  0  0
 17 18  1  0  0  0  0
 15 19  2  0  0  0  0
 19 20  1  0  0  0  0
  1 21  1  0  0  0  0
  1 22  1  0  0  0  0
  1 23  1  0  0  0  0
  2 24  1  0  0  0  0
  2 25  1  0  0  0  0
  6 26  1  0  0  0  0
  6 27  1  0  0  0  0
 12 28  1  0  0  0  0
 12 29  1  0  0  0  0
 13 30  1  0  0  0  0
 13 31  1  0  0  0  0
 13 32  1  0  0  0  0
 18 33  1  0  0  0  0
 18 34  1  0  0  0  0
 18 35  1  0  0  0  0
 20 36  1  0  0  0  0
 20 37  1  0  0  0  0
 20 38  1  0  0  0  0
M  END
