 xtb: 6.7.1 (edcfbbe)
          04092505203D

 41 40  0     0  0            999 V2000
    5.3614   -0.0949   -1.2466 C   0  0  0  0  0  0  0  0  0  0  0  0
    4.4983   -0.6514   -0.1316 C   0  0  0  0  0  0  0  0  0  0  0  0
    3.4954    0.2975    0.2824 O   0  0  0  0  0  0  0  0  0  0  0  0
    2.0537    0.3947   -0.3847 P   0  0  0  0  0  0  0  0  0  0  0  0
    1.9794    0.7878   -2.2979 S   0  0  0  0  0  0  0  0  0  0  0  0
    1.3831    1.5097    0.4993 O   0  0  0  0  0  0  0  0  0  0  0  0
    1.4367    1.5144    1.9476 C   0  0  0  0  0  0  0  0  0  0  0  0
    2.4999    2.4749    2.4372 C   0  0  0  0  0  0  0  0  0  0  0  0
    1.2318   -1.4913    0.1798 S   0  0  0  0  0  0  0  0  0  0  0  0
    0.1140   -1.8060   -1.2190 C   0  0  0  0  0  0  0  0  0  0  0  0
   -1.6017   -2.0369   -0.7060 S   0  0  0  0  0  0  0  0  0  0  0  0
   -1.9666   -0.0606   -0.0035 P   0  0  0  0  0  0  0  0  0  0  0  0
   -1.3919    1.3835   -1.1936 S   0  0  0  0  0  0  0  0  0  0  0  0
   -1.3155    0.0386    1.4264 O   0  0  0  0  0  0  0  0  0  0  0  0
   -1.6307   -0.8846    2.5051 C   0  0  0  0  0  0  0  0  0  0  0  0
   -2.6454   -0.2726    3.4471 C   0  0  0  0  0  0  0  0  0  0  0  0
   -3.5192   -0.1080    0.3191 O   0  0  0  0  0  0  0  0  0  0  0  0
   -4.4990   -0.1502   -0.7392 C   0  0  0  0  0  0  0  0  0  0  0  0
   -5.8461    0.1952   -0.1382 C   0  0  0  0  0  0  0  0  0  0  0  0
    6.1372   -0.8137   -1.4898 H   0  0  0  0  0  0  0  0  0  0  0  0
    4.7591    0.0927   -2.1328 H   0  0  0  0  0  0  0  0  0  0  0  0
    5.8207    0.8392   -0.9354 H   0  0  0  0  0  0  0  0  0  0  0  0
    5.0850   -0.8318    0.7712 H   0  0  0  0  0  0  0  0  0  0  0  0
    4.0085   -1.5792   -0.4394 H   0  0  0  0  0  0  0  0  0  0  0  0
    0.4373    1.8289    2.2548 H   0  0  0  0  0  0  0  0  0  0  0  0
    1.6276    0.4959    2.2970 H   0  0  0  0  0  0  0  0  0  0  0  0
    2.4736    2.5097    3.5218 H   0  0  0  0  0  0  0  0  0  0  0  0
    3.4826    2.1468    2.1092 H   0  0  0  0  0  0  0  0  0  0  0  0
    2.3119    3.4687    2.0399 H   0  0  0  0  0  0  0  0  0  0  0  0
    0.4160   -2.7372   -1.6915 H   0  0  0  0  0  0  0  0  0  0  0  0
    0.1894   -0.9667   -1.9172 H   0  0  0  0  0  0  0  0  0  0  0  0
   -2.0012   -1.8186    2.0741 H   0  0  0  0  0  0  0  0  0  0  0  0
   -0.6750   -1.0639    3.0012 H   0  0  0  0  0  0  0  0  0  0  0  0
   -3.5786   -0.0857    2.9227 H   0  0  0  0  0  0  0  0  0  0  0  0
   -2.8254   -0.9609    4.2669 H   0  0  0  0  0  0  0  0  0  0  0  0
   -2.2721    0.6675    3.8435 H   0  0  0  0  0  0  0  0  0  0  0  0
   -4.2055    0.5668   -1.5129 H   0  0  0  0  0  0  0  0  0  0  0  0
   -4.4961   -1.1572   -1.1648 H   0  0  0  0  0  0  0  0  0  0  0  0
   -6.0999   -0.5182    0.6403 H   0  0  0  0  0  0  0  0  0  0  0  0
   -5.8193    1.1933    0.2901 H   0  0  0  0  0  0  0  0  0  0  0  0
   -6.6011    0.1608   -0.9166 H   0  0  0  0  0  0  0  0  0  0  0  0
  1  2  1  0  0  0  0
  2  3  1  0  0  0  0
  3  4  2  0  0  0  0
  4  5  2  0  0  0  0
  4  6  2  0  0  0  0
  6  7  1  0  0  0  0
  7  8  1  0  0  0  0
  4  9  1  0  0  0  0
  9 10  1  0  0  0  0
 10 11  1  0  0  0  0
 11 12  1  0  0  0  0
 12 13  2  0  0  0  0
 12 14  2  0  0  0  0
 14 15  1  0  0  0  0
 15 16  1  0  0  0  0
 12 17  2  0  0  0  0
 17 18  1  0  0  0  0
 18 19  1  0  0  0  0
  1 20  1  0  0  0  0
  1 21  1  0  0  0  0
  1 22  1  0  0  0  0
  2 23  1  0  0  0  0
  2 24  1  0  0  0  0
  7 25  1  0  0  0  0
  7 26  1  0  0  0  0
  8 27  1  0  0  0  0
  8 28  1  0  0  0  0
  8 29  1  0  0  0  0
 10 30  1  0  0  0  0
 10 31  1  0  0  0  0
 15 32  1  0  0  0  0
 15 33  1  0  0  0  0
 16 34  1  0  0  0  0
 16 35  1  0  0  0  0
 16 36  1  0  0  0  0
 18 37  1  0  0  0  0
 18 38  1  0  0  0  0
 19 39  1  0  0  0  0
 19 40  1  0  0  0  0
 19 41  1  0  0  0  0
M  END
