 xtb: 6.7.1 (edcfbbe)
          04092507313D

 38 37  0     0  0            999 V2000
    4.5176    0.8927   -0.6214 C   0  0  0  0  0  0  0  0  0  0  0  0
    4.1907    0.1702   -1.9178 C   0  0  0  0  0  0  0  0  0  0  0  0
    2.8237   -0.2835   -1.9214 O   0  0  0  0  0  0  0  0  0  0  0  0
    2.5499   -1.4691   -1.4122 C   0  0  0  0  0  0  0  0  0  0  0  0
    3.3715   -2.2421   -0.9767 O   0  0  0  0  0  0  0  0  0  0  0  0
    1.0621   -1.7701   -1.4879 C   0  0  0  0  0  0  0  0  0  0  0  0
    0.2533   -0.6675   -0.8106 C   0  0  0  0  0  0  0  0  0  0  0  0
    0.5051    0.3054   -1.2455 H   0  0  0  0  0  0  0  0  0  0  0  0
    0.5061   -0.6007    0.6832 C   0  0  0  0  0  0  0  0  0  0  0  0
   -0.3984   -0.6115    1.4941 O   0  0  0  0  0  0  0  0  0  0  0  0
    1.7761   -0.5302    0.9697 O   0  0  0  0  0  0  0  0  0  0  0  0
    2.1552   -0.3896    2.3577 C   0  0  0  0  0  0  0  0  0  0  0  0
    2.2403    1.0788    2.7388 C   0  0  0  0  0  0  0  0  0  0  0  0
   -1.5316   -0.9538   -1.0505 S   0  0  0  0  0  0  0  0  0  0  0  0
   -2.2511    0.7090    0.0794 P   0  0  0  0  0  0  0  0  0  0  0  0
   -1.0393    2.1857    0.5014 S   0  0  0  0  0  0  0  0  0  0  0  0
   -3.3679    1.2681   -0.9061 O   0  0  0  0  0  0  0  0  0  0  0  0
   -4.4479    0.4593   -1.4032 C   0  0  0  0  0  0  0  0  0  0  0  0
   -3.1936    0.1569    1.2445 O   0  0  0  0  0  0  0  0  0  0  0  0
   -2.8677   -0.0227    2.6223 C   0  0  0  0  0  0  0  0  0  0  0  0
    5.5261    1.2893   -0.6741 H   0  0  0  0  0  0  0  0  0  0  0  0
    3.8176    1.7095   -0.4638 H   0  0  0  0  0  0  0  0  0  0  0  0
    4.4489    0.2010    0.2142 H   0  0  0  0  0  0  0  0  0  0  0  0
    4.8451   -0.6950   -2.0562 H   0  0  0  0  0  0  0  0  0  0  0  0
    4.2577    0.8407   -2.7749 H   0  0  0  0  0  0  0  0  0  0  0  0
    0.8720   -2.7357   -1.0193 H   0  0  0  0  0  0  0  0  0  0  0  0
    0.7725   -1.8197   -2.5389 H   0  0  0  0  0  0  0  0  0  0  0  0
    1.4164   -0.9110    2.9716 H   0  0  0  0  0  0  0  0  0  0  0  0
    3.1243   -0.8844    2.4280 H   0  0  0  0  0  0  0  0  0  0  0  0
    1.2846    1.5688    2.5595 H   0  0  0  0  0  0  0  0  0  0  0  0
    2.4892    1.1611    3.7914 H   0  0  0  0  0  0  0  0  0  0  0  0
    3.0015    1.5814    2.1493 H   0  0  0  0  0  0  0  0  0  0  0  0
   -4.0536   -0.4485   -1.8614 H   0  0  0  0  0  0  0  0  0  0  0  0
   -4.9482    1.0774   -2.1443 H   0  0  0  0  0  0  0  0  0  0  0  0
   -5.1245    0.2046   -0.5897 H   0  0  0  0  0  0  0  0  0  0  0  0
   -3.8046    0.1014    3.1611 H   0  0  0  0  0  0  0  0  0  0  0  0
   -2.1413    0.7252    2.9404 H   0  0  0  0  0  0  0  0  0  0  0  0
   -2.4571   -1.0184    2.7762 H   0  0  0  0  0  0  0  0  0  0  0  0
  1  2  1  0  0  0  0
  2  3  1  0  0  0  0
  3  4  1  0  0  0  0
  4  5  2  0  0  0  0
  4  6  1  0  0  0  0
  6  7  1  0  0  0  0
  7  8  1  0  0  0  0
  7  9  1  0  0  0  0
  9 10  2  0  0  0  0
  9 11  4  0  0  0  0
 11 12  1  0  0  0  0
 12 13  1  0  0  0  0
  7 14  1  0  0  0  0
 14 15  1  0  0  0  0
 15 16  2  0  0  0  0
 15 17  1  0  0  0  0
 17 18  1  0  0  0  0
 15 19  2  0  0  0  0
 19 20  1  0  0  0  0
  1 21  1  0  0  0  0
  1 22  1  0  0  0  0
  1 23  1  0  0  0  0
  2 24  1  0  0  0  0
  2 25  1  0  0  0  0
  6 26  1  0  0  0  0
  6 27  1  0  0  0  0
 12 28  1  0  0  0  0
 12 29  1  0  0  0  0
 13 30  1  0  0  0  0
 13 31  1  0  0  0  0
 13 32  1  0  0  0  0
 18 33  1  0  0  0  0
 18 34  1  0  0  0  0
 18 35  1  0  0  0  0
 20 36  1  0  0  0  0
 20 37  1  0  0  0  0
 20 38  1  0  0  0  0
M  END
