41
 xtb: 6.7.1 (edcfbbe)
C            1.05949517270110        1.43805506635136        2.30005310158450
C            2.49379247925208        0.97055664963869        2.32554028508045
O            3.03429516370433        0.75148483352325        0.97740001274853
P            2.63774167201601       -0.52728579355274        0.07984547608680
S            2.24564029713163       -2.17948144169570        1.03208721861916
O            3.86791818368528       -0.54814167543865       -0.95674312614078
C            5.13240620349213       -1.23145437555678       -0.62462248717581
C            5.90636624440257       -0.53572137280829        0.46810509400764
S            1.11162868955123        0.22131599399888       -1.20368194086645
C           -0.08873792605383       -1.16674785917441       -1.22702481374640
S           -1.28035637894891       -1.25104885444337        0.16920421065283
P           -2.58735156028678        0.33137697356424       -0.34528825560835
S           -3.03591874438831        0.52761426711478       -2.23258812099687
O           -1.84823242698171        1.57150705784549        0.35724176872247
C           -2.30872048125001        2.95306550897958        0.11975955146787
C           -1.28207435230376        3.68231986604767       -0.70802173992503
O           -3.81302278829681        0.08735658601623        0.67156720824993
C           -5.05007830686738       -0.60674950813533        0.28508959479035
C           -4.86856369762942       -2.10294056509978        0.22924712426378
H            0.94718718530367        2.33397780958171        1.68237887866017
H            0.38944017884722        0.66022384392550        1.92391236035733
H            0.75749404600317        1.68351277575763        3.32375717963325
H            2.61035367680741        0.04240197940558        2.89351330657928
H            3.15799878356048        1.72927654854479        2.74436921836468
H            4.89649136653353       -2.26778813562950       -0.36403586593917
H            5.67650324489758       -1.21773278024092       -1.57071004276673
H            6.07179030042983        0.51754019042549        0.22433701931046
H            5.40130095417000       -0.60409648105613        1.43582323157324
H            6.88171369800967       -1.02517544861080        0.55997407658093
H            0.44305755984914       -2.12092136729001       -1.22144202372207
H           -0.64462686606537       -1.06710324048256       -2.16417888945411
H           -3.28868690902334        2.93536868695552       -0.36672027977001
H           -2.41736171328844        3.38761902913016        1.11642548939216
H           -0.30778428243016        3.67879396510366       -0.21038209432149
H           -1.17949447668830        3.22446030421898       -1.69584932675652
H           -1.60036682437320        4.72199572520012       -0.83767591980386
H           -5.75666560021920       -0.31680712000482        1.06527092675331
H           -5.38696234052773       -0.19800399735967       -0.67217672838617
H           -4.47540002314951       -2.48680903267247        1.17521276786521
H           -5.84527639671638       -2.56415361822308        0.04967255587320
H           -4.19844944876582       -2.39862951459035       -0.58283466099372
