 xtb: 6.7.1 (edcfbbe)
          04092505213D

 41 40  0     0  0            999 V2000
    2.7357    0.4988   -3.3839 C   0  0  0  0  0  0  0  0  0  0  0  0
    2.8553    0.8985   -1.9288 C   0  0  0  0  0  0  0  0  0  0  0  0
    2.5217   -0.2531   -1.1263 O   0  0  0  0  0  0  0  0  0  0  0  0
    2.1948   -0.1620    0.4196 P   0  0  0  0  0  0  0  0  0  0  0  0
    1.1136    1.4065    0.9219 S   0  0  0  0  0  0  0  0  0  0  0  0
    3.6544   -0.1822    1.0474 O   0  0  0  0  0  0  0  0  0  0  0  0
    3.9955   -0.5851    2.3891 C   0  0  0  0  0  0  0  0  0  0  0  0
    3.0719   -0.0068    3.4400 C   0  0  0  0  0  0  0  0  0  0  0  0
    1.4778   -2.1002    0.7801 S   0  0  0  0  0  0  0  0  0  0  0  0
   -0.1286   -2.0182   -0.0583 C   0  0  0  0  0  0  0  0  0  0  0  0
   -1.3961   -1.0938    0.8593 S   0  0  0  0  0  0  0  0  0  0  0  0
   -1.8619    0.4398   -0.5504 P   0  0  0  0  0  0  0  0  0  0  0  0
   -0.7572    0.4760   -2.1661 S   0  0  0  0  0  0  0  0  0  0  0  0
   -1.9421    1.8229    0.1799 O   0  0  0  0  0  0  0  0  0  0  0  0
   -2.2914    2.0591    1.5656 C   0  0  0  0  0  0  0  0  0  0  0  0
   -3.6031    1.4174    1.9586 C   0  0  0  0  0  0  0  0  0  0  0  0
   -3.4017    0.1763   -0.8735 O   0  0  0  0  0  0  0  0  0  0  0  0
   -3.8230   -0.9593   -1.6495 C   0  0  0  0  0  0  0  0  0  0  0  0
   -5.2699   -0.7435   -2.0450 C   0  0  0  0  0  0  0  0  0  0  0  0
    3.3687   -0.3604   -3.5844 H   0  0  0  0  0  0  0  0  0  0  0  0
    1.7034    0.2436   -3.6122 H   0  0  0  0  0  0  0  0  0  0  0  0
    3.0429    1.3320   -4.0072 H   0  0  0  0  0  0  0  0  0  0  0  0
    2.1639    1.7113   -1.6802 H   0  0  0  0  0  0  0  0  0  0  0  0
    3.8734    1.2028   -1.6739 H   0  0  0  0  0  0  0  0  0  0  0  0
    3.9804   -1.6779    2.4196 H   0  0  0  0  0  0  0  0  0  0  0  0
    5.0181   -0.2243    2.5134 H   0  0  0  0  0  0  0  0  0  0  0  0
    3.4250   -0.2939    4.4252 H   0  0  0  0  0  0  0  0  0  0  0  0
    3.0445    1.0782    3.3681 H   0  0  0  0  0  0  0  0  0  0  0  0
    2.0604   -0.3876    3.3007 H   0  0  0  0  0  0  0  0  0  0  0  0
   -0.4617   -3.0497   -0.1374 H   0  0  0  0  0  0  0  0  0  0  0  0
   -0.0034   -1.5588   -1.0434 H   0  0  0  0  0  0  0  0  0  0  0  0
   -1.4640    1.6983    2.1827 H   0  0  0  0  0  0  0  0  0  0  0  0
   -2.3362    3.1476    1.6229 H   0  0  0  0  0  0  0  0  0  0  0  0
   -3.5209    0.3322    1.9171 H   0  0  0  0  0  0  0  0  0  0  0  0
   -3.8487    1.7129    2.9740 H   0  0  0  0  0  0  0  0  0  0  0  0
   -4.3938    1.7395    1.2859 H   0  0  0  0  0  0  0  0  0  0  0  0
   -3.1752   -1.0418   -2.5294 H   0  0  0  0  0  0  0  0  0  0  0  0
   -3.7082   -1.8563   -1.0337 H   0  0  0  0  0  0  0  0  0  0  0  0
   -5.3624    0.1642   -2.6347 H   0  0  0  0  0  0  0  0  0  0  0  0
   -5.6083   -1.5898   -2.6335 H   0  0  0  0  0  0  0  0  0  0  0  0
   -5.8879   -0.6510   -1.1569 H   0  0  0  0  0  0  0  0  0  0  0  0
  1  2  1  0  0  0  0
  2  3  1  0  0  0  0
  3  4  2  0  0  0  0
  4  5  2  0  0  0  0
  4  6  2  0  0  0  0
  6  7  1  0  0  0  0
  7  8  1  0  0  0  0
  4  9  1  0  0  0  0
  9 10  1  0  0  0  0
 10 11  1  0  0  0  0
 11 12  1  0  0  0  0
 12 13  2  0  0  0  0
 12 14  2  0  0  0  0
 14 15  1  0  0  0  0
 15 16  1  0  0  0  0
 12 17  2  0  0  0  0
 17 18  1  0  0  0  0
 18 19  1  0  0  0  0
  1 20  1  0  0  0  0
  1 21  1  0  0  0  0
  1 22  1  0  0  0  0
  2 23  1  0  0  0  0
  2 24  1  0  0  0  0
  7 25  1  0  0  0  0
  7 26  1  0  0  0  0
  8 27  1  0  0  0  0
  8 28  1  0  0  0  0
  8 29  1  0  0  0  0
 10 30  1  0  0  0  0
 10 31  1  0  0  0  0
 15 32  1  0  0  0  0
 15 33  1  0  0  0  0
 16 34  1  0  0  0  0
 16 35  1  0  0  0  0
 16 36  1  0  0  0  0
 18 37  1  0  0  0  0
 18 38  1  0  0  0  0
 19 39  1  0  0  0  0
 19 40  1  0  0  0  0
 19 41  1  0  0  0  0
M  END
