 xtb: 6.7.1 (edcfbbe)
          04092513573D

 41 40  0     0  0            999 V2000
    4.1714   -1.1327   -2.7240 C   0  0  0  0  0  0  0  0  0  0  0  0
    4.3593   -1.6580   -1.3153 C   0  0  0  0  0  0  0  0  0  0  0  0
    3.1155   -1.7674   -0.6010 O   0  0  0  0  0  0  0  0  0  0  0  0
    2.2999   -0.5180   -0.0448 P   0  0  0  0  0  0  0  0  0  0  0  0
    3.4178    0.9816    0.5537 S   0  0  0  0  0  0  0  0  0  0  0  0
    1.3906   -1.2111    1.0524 O   0  0  0  0  0  0  0  0  0  0  0  0
    1.8839   -1.5050    2.3817 C   0  0  0  0  0  0  0  0  0  0  0  0
    1.3442   -0.4984    3.3783 C   0  0  0  0  0  0  0  0  0  0  0  0
    0.8332   -0.1290   -1.5119 S   0  0  0  0  0  0  0  0  0  0  0  0
    0.2801    1.4795   -0.8736 C   0  0  0  0  0  0  0  0  0  0  0  0
   -0.7334    1.3725    0.6227 S   0  0  0  0  0  0  0  0  0  0  0  0
   -2.4630    0.5134   -0.2899 P   0  0  0  0  0  0  0  0  0  0  0  0
   -2.9325    1.1965   -2.0579 S   0  0  0  0  0  0  0  0  0  0  0  0
   -3.5784    0.6329    0.8401 O   0  0  0  0  0  0  0  0  0  0  0  0
   -4.5289    1.7117    0.9199 C   0  0  0  0  0  0  0  0  0  0  0  0
   -3.8984    3.0083    1.3840 C   0  0  0  0  0  0  0  0  0  0  0  0
   -2.1935   -1.0419   -0.3080 O   0  0  0  0  0  0  0  0  0  0  0  0
   -1.9571   -1.8028    0.9022 C   0  0  0  0  0  0  0  0  0  0  0  0
   -1.3535   -3.1324    0.5031 C   0  0  0  0  0  0  0  0  0  0  0  0
    3.8324   -0.0980   -2.6970 H   0  0  0  0  0  0  0  0  0  0  0  0
    5.1200   -1.1788   -3.2503 H   0  0  0  0  0  0  0  0  0  0  0  0
    3.4353   -1.7286   -3.2573 H   0  0  0  0  0  0  0  0  0  0  0  0
    5.0299   -1.0046   -0.7479 H   0  0  0  0  0  0  0  0  0  0  0  0
    4.7486   -2.6775   -1.3180 H   0  0  0  0  0  0  0  0  0  0  0  0
    1.5293   -2.5141    2.5975 H   0  0  0  0  0  0  0  0  0  0  0  0
    2.9774   -1.4961    2.3729 H   0  0  0  0  0  0  0  0  0  0  0  0
    1.7079    0.4988    3.1399 H   0  0  0  0  0  0  0  0  0  0  0  0
    0.2581   -0.4849    3.3530 H   0  0  0  0  0  0  0  0  0  0  0  0
    1.6760   -0.7694    4.3755 H   0  0  0  0  0  0  0  0  0  0  0  0
   -0.3043    1.9377   -1.6717 H   0  0  0  0  0  0  0  0  0  0  0  0
    1.1492    2.0857   -0.6174 H   0  0  0  0  0  0  0  0  0  0  0  0
   -4.9927    1.8376   -0.0632 H   0  0  0  0  0  0  0  0  0  0  0  0
   -5.2693    1.3489    1.6349 H   0  0  0  0  0  0  0  0  0  0  0  0
   -3.3588    2.8575    2.3152 H   0  0  0  0  0  0  0  0  0  0  0  0
   -3.2059    3.3798    0.6307 H   0  0  0  0  0  0  0  0  0  0  0  0
   -4.6804    3.7457    1.5370 H   0  0  0  0  0  0  0  0  0  0  0  0
   -1.2763   -1.2324    1.5410 H   0  0  0  0  0  0  0  0  0  0  0  0
   -2.9136   -1.9272    1.4135 H   0  0  0  0  0  0  0  0  0  0  0  0
   -2.0289   -3.6652   -0.1599 H   0  0  0  0  0  0  0  0  0  0  0  0
   -0.4099   -2.9724   -0.0130 H   0  0  0  0  0  0  0  0  0  0  0  0
   -1.1793   -3.7254    1.3952 H   0  0  0  0  0  0  0  0  0  0  0  0
  1  2  1  0  0  0  0
  2  3  1  0  0  0  0
  3  4  2  0  0  0  0
  4  5  2  0  0  0  0
  4  6  2  0  0  0  0
  6  7  1  0  0  0  0
  7  8  1  0  0  0  0
  4  9  1  0  0  0  0
  9 10  1  0  0  0  0
 10 11  1  0  0  0  0
 11 12  1  0  0  0  0
 12 13  2  0  0  0  0
 12 14  2  0  0  0  0
 14 15  1  0  0  0  0
 15 16  1  0  0  0  0
 12 17  2  0  0  0  0
 17 18  1  0  0  0  0
 18 19  1  0  0  0  0
  1 20  1  0  0  0  0
  1 21  1  0  0  0  0
  1 22  1  0  0  0  0
  2 23  1  0  0  0  0
  2 24  1  0  0  0  0
  7 25  1  0  0  0  0
  7 26  1  0  0  0  0
  8 27  1  0  0  0  0
  8 28  1  0  0  0  0
  8 29  1  0  0  0  0
 10 30  1  0  0  0  0
 10 31  1  0  0  0  0
 15 32  1  0  0  0  0
 15 33  1  0  0  0  0
 16 34  1  0  0  0  0
 16 35  1  0  0  0  0
 16 36  1  0  0  0  0
 18 37  1  0  0  0  0
 18 38  1  0  0  0  0
 19 39  1  0  0  0  0
 19 40  1  0  0  0  0
 19 41  1  0  0  0  0
M  END
