 xtb: 6.7.1 (edcfbbe)
          04092505213D

 41 40  0     0  0            999 V2000
    5.6320    0.8340   -1.2143 C   0  0  0  0  0  0  0  0  0  0  0  0
    4.2750    0.1706   -1.3347 C   0  0  0  0  0  0  0  0  0  0  0  0
    3.5725    0.3684   -0.0917 O   0  0  0  0  0  0  0  0  0  0  0  0
    1.9882    0.2638    0.0044 P   0  0  0  0  0  0  0  0  0  0  0  0
    1.0596    1.3861   -1.3132 S   0  0  0  0  0  0  0  0  0  0  0  0
    1.7309    0.7275    1.4876 O   0  0  0  0  0  0  0  0  0  0  0  0
    2.4305    0.1827    2.6399 C   0  0  0  0  0  0  0  0  0  0  0  0
    1.5629   -0.8220    3.3721 C   0  0  0  0  0  0  0  0  0  0  0  0
    1.7918   -1.8564   -0.0691 S   0  0  0  0  0  0  0  0  0  0  0  0
    0.0035   -2.1572   -0.0018 C   0  0  0  0  0  0  0  0  0  0  0  0
   -0.8998   -1.4148   -1.4053 S   0  0  0  0  0  0  0  0  0  0  0  0
   -2.0119    0.0336   -0.3519 P   0  0  0  0  0  0  0  0  0  0  0  0
   -2.8357    1.4147   -1.4664 S   0  0  0  0  0  0  0  0  0  0  0  0
   -1.0450    0.5104    0.8161 O   0  0  0  0  0  0  0  0  0  0  0  0
   -1.2231    1.8183    1.3990 C   0  0  0  0  0  0  0  0  0  0  0  0
   -2.4785    1.8793    2.2409 C   0  0  0  0  0  0  0  0  0  0  0  0
   -3.0088   -0.8634    0.5217 O   0  0  0  0  0  0  0  0  0  0  0  0
   -4.1011   -1.5831   -0.0787 C   0  0  0  0  0  0  0  0  0  0  0  0
   -5.3827   -0.7746   -0.0201 C   0  0  0  0  0  0  0  0  0  0  0  0
    6.1828    0.6852   -2.1371 H   0  0  0  0  0  0  0  0  0  0  0  0
    5.5115    1.8991   -1.0366 H   0  0  0  0  0  0  0  0  0  0  0  0
    6.1870    0.3986   -0.3887 H   0  0  0  0  0  0  0  0  0  0  0  0
    4.3690   -0.9054   -1.5029 H   0  0  0  0  0  0  0  0  0  0  0  0
    3.6834    0.6117   -2.1439 H   0  0  0  0  0  0  0  0  0  0  0  0
    3.3697   -0.2632    2.3099 H   0  0  0  0  0  0  0  0  0  0  0  0
    2.6371    1.0557    3.2610 H   0  0  0  0  0  0  0  0  0  0  0  0
    2.0336   -1.0672    4.3191 H   0  0  0  0  0  0  0  0  0  0  0  0
    0.5808   -0.3974    3.5636 H   0  0  0  0  0  0  0  0  0  0  0  0
    1.4513   -1.7332    2.7900 H   0  0  0  0  0  0  0  0  0  0  0  0
   -0.4131   -1.7788    0.9283 H   0  0  0  0  0  0  0  0  0  0  0  0
   -0.1018   -3.2368   -0.0807 H   0  0  0  0  0  0  0  0  0  0  0  0
   -0.3180    1.9697    1.9881 H   0  0  0  0  0  0  0  0  0  0  0  0
   -1.2550    2.5567    0.5907 H   0  0  0  0  0  0  0  0  0  0  0  0
   -2.4722    1.0892    2.9871 H   0  0  0  0  0  0  0  0  0  0  0  0
   -2.5330    2.8456    2.7319 H   0  0  0  0  0  0  0  0  0  0  0  0
   -3.3518    1.7556    1.6016 H   0  0  0  0  0  0  0  0  0  0  0  0
   -3.8422   -1.8313   -1.1135 H   0  0  0  0  0  0  0  0  0  0  0  0
   -4.1840   -2.5003    0.5074 H   0  0  0  0  0  0  0  0  0  0  0  0
   -5.6139   -0.5148    1.0091 H   0  0  0  0  0  0  0  0  0  0  0  0
   -5.2754    0.1404   -0.5988 H   0  0  0  0  0  0  0  0  0  0  0  0
   -6.1955   -1.3618   -0.4347 H   0  0  0  0  0  0  0  0  0  0  0  0
  1  2  1  0  0  0  0
  2  3  1  0  0  0  0
  3  4  2  0  0  0  0
  4  5  2  0  0  0  0
  4  6  2  0  0  0  0
  6  7  1  0  0  0  0
  7  8  1  0  0  0  0
  4  9  1  0  0  0  0
  9 10  1  0  0  0  0
 10 11  1  0  0  0  0
 11 12  1  0  0  0  0
 12 13  2  0  0  0  0
 12 14  1  0  0  0  0
 14 15  1  0  0  0  0
 15 16  1  0  0  0  0
 12 17  1  0  0  0  0
 17 18  1  0  0  0  0
 18 19  1  0  0  0  0
  1 20  1  0  0  0  0
  1 21  1  0  0  0  0
  1 22  1  0  0  0  0
  2 23  1  0  0  0  0
  2 24  1  0  0  0  0
  7 25  1  0  0  0  0
  7 26  1  0  0  0  0
  8 27  1  0  0  0  0
  8 28  1  0  0  0  0
  8 29  1  0  0  0  0
 10 30  1  0  0  0  0
 10 31  1  0  0  0  0
 15 32  1  0  0  0  0
 15 33  1  0  0  0  0
 16 34  1  0  0  0  0
 16 35  1  0  0  0  0
 16 36  1  0  0  0  0
 18 37  1  0  0  0  0
 18 38  1  0  0  0  0
 19 39  1  0  0  0  0
 19 40  1  0  0  0  0
 19 41  1  0  0  0  0
M  END
