41
 xtb: 6.7.1 (edcfbbe)
C            5.98820693045808       -0.65550399138523        0.18258378443287
C            4.66484025060876       -0.89983044922435       -0.49421299230637
O            3.77046322294365        0.20137573468771       -0.10986237058106
P            2.36531690358732        0.42819895477698       -0.86498330582642
S            2.39996708757127        0.48076224325764       -2.81053054716440
O            1.90127911228945        1.83356983932294       -0.25196680367288
C            1.34923777698982        2.02849720428714        1.10221413002722
C            2.36119902171889        1.80153928510731        2.19742380782012
S            1.18585058853393       -1.11754122525528       -0.01231784319111
C           -0.12773213327917       -1.31910294305308       -1.30487237111803
S           -1.73466246984441       -1.79671963327667       -0.58095453284895
P           -2.40582108276990        0.09540552181401        0.14512086814337
S           -2.08976262165054        1.59924298528328       -1.04313300409865
O           -1.72276183558784        0.33930069448160        1.57305387321809
C           -1.83444680691251       -0.62044830110729        2.68304720354643
C           -0.72416257376578       -0.30805386132212        3.65255549923789
O           -3.91366699228149       -0.28264398043376        0.54850616371224
C           -5.07414232367649       -0.02573180495880       -0.32104844477954
C           -5.20845725337907       -1.05859355239739       -1.41053685189335
H            6.42892309440872        0.28712709373036       -0.15224259391863
H            5.87464600333654       -0.63189751443501        1.26957791107300
H            6.67271327645317       -1.46891962930710       -0.07603684534222
H            4.20821025392798       -1.83956533029831       -0.16901329109177
H            4.76130227156005       -0.90231151712441       -1.58404990143336
H            1.01243693563329        3.06677393959906        1.07984258271883
H            0.47949218238965        1.37575504789200        1.20649401960106
H            3.25753615788016        2.40884506971402        2.04220509756498
H            1.90259899218837        2.10062454284576        3.14614365583583
H            2.65194055396792        0.75085436729922        2.28108343684017
H            0.15655170051765       -2.13242517703560       -1.97668735280708
H           -0.23926279781619       -0.39228167384235       -1.87350527398020
H           -2.82324039980059       -0.49145650748644        3.13198158510755
H           -1.74634002653551       -1.63611532745977        2.28359515994273
H            0.25493314852222       -0.46472784025714        3.19076654623745
H           -0.79252793344847        0.72448600416819        4.00674530157917
H           -0.81147497527726       -0.97555055081881        4.51533548052107
H           -5.91797860493148       -0.05820671520360        0.37064007831904
H           -4.97949815874788        0.98721821946718       -0.72287818034842
H           -4.39440644802712       -0.98992728687967       -2.13734483604740
H           -5.23336457856213       -2.06932946918432       -0.99325656627355
H           -6.15107263659230       -0.88124766696899       -1.93855915866521
