38
 xtb: 6.7.1 (edcfbbe)
C            4.76737299432388       -3.50332853757326       -1.82943747742019
C            4.01180138220754       -2.74174094285908       -0.77241545633201
O            3.10026003427579       -1.82687672785428       -1.47004029240109
C            2.31058474106530       -1.07449147539828       -0.69821348047528
O            2.29962264751209       -1.11927730487384        0.52073750909528
C            1.46075618818014       -0.14275352871956       -1.52251069765558
C            0.31042092688582        0.47295482290030       -0.72910175251000
H           -0.17665341928866        1.22633758006116       -1.36077062243812
C            0.75488872307156        1.19464663293567        0.53924060624542
O            0.18797332560711        1.14673563558388        1.61181805007636
O            1.81335890975357        1.96722677789741        0.26923147546242
C            2.36663997741934        2.74846940051424        1.38301570982544
C            3.27654931374341        1.89461954551548        2.23334760033761
S           -0.94194950340544       -0.83724585796325       -0.38738225554627
P           -2.67915934616540        0.29750309197511        0.05611517686780
S           -2.80242018346640        2.04359358138828       -0.78498190295919
O           -3.81885928505444       -0.79228715030898       -0.28867900298858
C           -4.16036560257644       -1.07703273211937       -1.67446135868387
O           -2.84947403524680        0.39799547411842        1.64756256904934
C           -2.64510312199439       -0.76234270546986        2.50763431374433
H            5.35158449174130       -2.82783891640860       -2.46049296822120
H            5.45580708800538       -4.19882299444661       -1.34056769072575
H            4.08557237786469       -4.08125639509680       -2.45965402613029
H            4.67417263535967       -2.14343744191290       -0.14020553714836
H            3.41135192555388       -3.40115028508414       -0.13956581627921
H            1.08739328304132       -0.66165681055032       -2.40899706200095
H            2.11491765687904        0.65886229511796       -1.88426826026874
H            2.91440361272625        3.55073807071725        0.88638199790220
H            1.53800071869552        3.17304111696019        1.95458424118423
H            4.07603746055374        1.45730937305497        1.62841009261873
H            3.73399111792384        2.52660154873505        3.00132026147052
H            2.72600228616276        1.09317965862060        2.73263687865365
H           -4.90855208795551       -1.86851689224140       -1.63452108914629
H           -3.28015151959402       -1.42142879034696       -2.22438092639205
H           -4.57882008931073       -0.18377575596526       -2.14473755030318
H           -2.95121876526464       -0.44095928610948        3.50303060205324
H           -1.58826216336161       -1.03960251542672        2.50991161619190
H           -3.26351310324195       -1.60031685089363        2.17704765591692
