 xtb: 6.7.1 (edcfbbe)
          04092505203D

 41 40  0     0  0            999 V2000
    4.6541    0.3063   -1.7670 C   0  0  0  0  0  0  0  0  0  0  0  0
    4.3013    1.3979   -0.7782 C   0  0  0  0  0  0  0  0  0  0  0  0
    3.4299    0.9309    0.2674 O   0  0  0  0  0  0  0  0  0  0  0  0
    1.9396    0.4554   -0.0026 P   0  0  0  0  0  0  0  0  0  0  0  0
    0.9220    1.5100   -1.3052 S   0  0  0  0  0  0  0  0  0  0  0  0
    1.2992    0.5455    1.4372 O   0  0  0  0  0  0  0  0  0  0  0  0
    1.9808    0.2931    2.6937 C   0  0  0  0  0  0  0  0  0  0  0  0
    2.3318   -1.1679    2.8822 C   0  0  0  0  0  0  0  0  0  0  0  0
    2.1345   -1.6103   -0.4914 S   0  0  0  0  0  0  0  0  0  0  0  0
    0.4188   -1.9163   -0.9466 C   0  0  0  0  0  0  0  0  0  0  0  0
   -0.7293   -1.7477    0.4647 S   0  0  0  0  0  0  0  0  0  0  0  0
   -2.0795   -0.3289   -0.3270 P   0  0  0  0  0  0  0  0  0  0  0  0
   -2.1542   -0.1077   -2.2646 S   0  0  0  0  0  0  0  0  0  0  0  0
   -1.8237    1.0368    0.4438 O   0  0  0  0  0  0  0  0  0  0  0  0
   -1.8927    1.1109    1.8873 C   0  0  0  0  0  0  0  0  0  0  0  0
   -1.3967    2.4802    2.3004 C   0  0  0  0  0  0  0  0  0  0  0  0
   -3.3927   -0.9565    0.3396 O   0  0  0  0  0  0  0  0  0  0  0  0
   -4.6920   -0.8263   -0.2663 C   0  0  0  0  0  0  0  0  0  0  0  0
   -5.2419    0.5776   -0.1088 C   0  0  0  0  0  0  0  0  0  0  0  0
    5.0239   -0.5733   -1.2464 H   0  0  0  0  0  0  0  0  0  0  0  0
    3.7741    0.0284   -2.3449 H   0  0  0  0  0  0  0  0  0  0  0  0
    5.4174    0.6726   -2.4460 H   0  0  0  0  0  0  0  0  0  0  0  0
    3.8111    2.2335   -1.2870 H   0  0  0  0  0  0  0  0  0  0  0  0
    5.1810    1.7536   -0.2397 H   0  0  0  0  0  0  0  0  0  0  0  0
    2.8723    0.9209    2.7309 H   0  0  0  0  0  0  0  0  0  0  0  0
    1.2566    0.6292    3.4379 H   0  0  0  0  0  0  0  0  0  0  0  0
    2.6823   -1.3152    3.8990 H   0  0  0  0  0  0  0  0  0  0  0  0
    1.4575   -1.7927    2.7114 H   0  0  0  0  0  0  0  0  0  0  0  0
    3.1160   -1.4660    2.1905 H   0  0  0  0  0  0  0  0  0  0  0  0
    0.3759   -2.9440   -1.2978 H   0  0  0  0  0  0  0  0  0  0  0  0
    0.1078   -1.2197   -1.7304 H   0  0  0  0  0  0  0  0  0  0  0  0
   -2.9300    0.9470    2.1891 H   0  0  0  0  0  0  0  0  0  0  0  0
   -1.2696    0.3129    2.3029 H   0  0  0  0  0  0  0  0  0  0  0  0
   -2.0183    3.2516    1.8547 H   0  0  0  0  0  0  0  0  0  0  0  0
   -1.4329    2.5642    3.3817 H   0  0  0  0  0  0  0  0  0  0  0  0
   -0.3749    2.6199    1.9566 H   0  0  0  0  0  0  0  0  0  0  0  0
   -4.6096   -1.0884   -1.3256 H   0  0  0  0  0  0  0  0  0  0  0  0
   -5.3026   -1.5652    0.2541 H   0  0  0  0  0  0  0  0  0  0  0  0
   -4.5777    1.2878   -0.6024 H   0  0  0  0  0  0  0  0  0  0  0  0
   -6.2226    0.6344   -0.5705 H   0  0  0  0  0  0  0  0  0  0  0  0
   -5.3247    0.8412    0.9425 H   0  0  0  0  0  0  0  0  0  0  0  0
  1  2  1  0  0  0  0
  2  3  1  0  0  0  0
  3  4  2  0  0  0  0
  4  5  2  0  0  0  0
  4  6  2  0  0  0  0
  6  7  1  0  0  0  0
  7  8  1  0  0  0  0
  4  9  1  0  0  0  0
  9 10  1  0  0  0  0
 10 11  1  0  0  0  0
 11 12  1  0  0  0  0
 12 13  2  0  0  0  0
 12 14  2  0  0  0  0
 14 15  1  0  0  0  0
 15 16  1  0  0  0  0
 12 17  1  0  0  0  0
 17 18  1  0  0  0  0
 18 19  1  0  0  0  0
  1 20  1  0  0  0  0
  1 21  1  0  0  0  0
  1 22  1  0  0  0  0
  2 23  1  0  0  0  0
  2 24  1  0  0  0  0
  7 25  1  0  0  0  0
  7 26  1  0  0  0  0
  8 27  1  0  0  0  0
  8 28  1  0  0  0  0
  8 29  1  0  0  0  0
 10 30  1  0  0  0  0
 10 31  1  0  0  0  0
 15 32  1  0  0  0  0
 15 33  1  0  0  0  0
 16 34  1  0  0  0  0
 16 35  1  0  0  0  0
 16 36  1  0  0  0  0
 18 37  1  0  0  0  0
 18 38  1  0  0  0  0
 19 39  1  0  0  0  0
 19 40  1  0  0  0  0
 19 41  1  0  0  0  0
M  END
