 xtb: 6.7.1 (edcfbbe)
          04092505203D

 41 40  0     0  0            999 V2000
    4.7426   -1.3624   -0.4221 C   0  0  0  0  0  0  0  0  0  0  0  0
    4.6214    0.1109   -0.0915 C   0  0  0  0  0  0  0  0  0  0  0  0
    3.3902    0.4121    0.5874 O   0  0  0  0  0  0  0  0  0  0  0  0
    1.9791    0.3816   -0.1468 P   0  0  0  0  0  0  0  0  0  0  0  0
    2.0460    0.9836   -2.0181 S   0  0  0  0  0  0  0  0  0  0  0  0
    1.0799    1.1354    0.9153 O   0  0  0  0  0  0  0  0  0  0  0  0
    1.3824    2.4144    1.5091 C   0  0  0  0  0  0  0  0  0  0  0  0
    1.5787    3.5038    0.4762 C   0  0  0  0  0  0  0  0  0  0  0  0
    1.2766   -1.5851    0.1262 S   0  0  0  0  0  0  0  0  0  0  0  0
    0.1563   -1.7401   -1.3010 C   0  0  0  0  0  0  0  0  0  0  0  0
   -1.5630   -2.0073   -0.8142 S   0  0  0  0  0  0  0  0  0  0  0  0
   -1.9723   -0.0921    0.0189 P   0  0  0  0  0  0  0  0  0  0  0  0
   -1.4016    1.4412   -1.0521 S   0  0  0  0  0  0  0  0  0  0  0  0
   -1.4140   -0.0865    1.4887 O   0  0  0  0  0  0  0  0  0  0  0  0
   -1.8069   -1.0833    2.4733 C   0  0  0  0  0  0  0  0  0  0  0  0
   -0.6414   -1.3077    3.4134 C   0  0  0  0  0  0  0  0  0  0  0  0
   -3.5388   -0.1853    0.2730 O   0  0  0  0  0  0  0  0  0  0  0  0
   -4.4834   -0.1555   -0.8168 C   0  0  0  0  0  0  0  0  0  0  0  0
   -5.8542    0.1204   -0.2336 C   0  0  0  0  0  0  0  0  0  0  0  0
    4.5730   -1.9647    0.4666 H   0  0  0  0  0  0  0  0  0  0  0  0
    4.0074   -1.6348   -1.1776 H   0  0  0  0  0  0  0  0  0  0  0  0
    5.7361   -1.5612   -0.8107 H   0  0  0  0  0  0  0  0  0  0  0  0
    4.6694    0.7142   -1.0039 H   0  0  0  0  0  0  0  0  0  0  0  0
    5.3922    0.4325    0.6101 H   0  0  0  0  0  0  0  0  0  0  0  0
    0.5086    2.6126    2.1329 H   0  0  0  0  0  0  0  0  0  0  0  0
    2.2721    2.2964    2.1323 H   0  0  0  0  0  0  0  0  0  0  0  0
    0.7159    3.5503   -0.1866 H   0  0  0  0  0  0  0  0  0  0  0  0
    1.7009    4.4601    0.9747 H   0  0  0  0  0  0  0  0  0  0  0  0
    2.4632    3.2985   -0.1261 H   0  0  0  0  0  0  0  0  0  0  0  0
    0.4462   -2.6224   -1.8656 H   0  0  0  0  0  0  0  0  0  0  0  0
    0.2388   -0.8357   -1.9110 H   0  0  0  0  0  0  0  0  0  0  0  0
   -2.6792   -0.6872    2.9957 H   0  0  0  0  0  0  0  0  0  0  0  0
   -2.0829   -2.0043    1.9517 H   0  0  0  0  0  0  0  0  0  0  0  0
   -0.3542   -0.3708    3.8822 H   0  0  0  0  0  0  0  0  0  0  0  0
   -0.9370   -2.0182    4.1786 H   0  0  0  0  0  0  0  0  0  0  0  0
    0.2127   -1.7023    2.8685 H   0  0  0  0  0  0  0  0  0  0  0  0
   -4.1785    0.6264   -1.5201 H   0  0  0  0  0  0  0  0  0  0  0  0
   -4.4498   -1.1244   -1.3219 H   0  0  0  0  0  0  0  0  0  0  0  0
   -6.1171   -0.6563    0.4784 H   0  0  0  0  0  0  0  0  0  0  0  0
   -5.8572    1.0810    0.2740 H   0  0  0  0  0  0  0  0  0  0  0  0
   -6.5847    0.1367   -1.0356 H   0  0  0  0  0  0  0  0  0  0  0  0
  1  2  1  0  0  0  0
  2  3  1  0  0  0  0
  3  4  2  0  0  0  0
  4  5  2  0  0  0  0
  4  6  2  0  0  0  0
  6  7  1  0  0  0  0
  7  8  1  0  0  0  0
  4  9  1  0  0  0  0
  9 10  1  0  0  0  0
 10 11  1  0  0  0  0
 11 12  1  0  0  0  0
 12 13  2  0  0  0  0
 12 14  2  0  0  0  0
 14 15  1  0  0  0  0
 15 16  1  0  0  0  0
 12 17  2  0  0  0  0
 17 18  1  0  0  0  0
 18 19  1  0  0  0  0
  1 20  1  0  0  0  0
  1 21  1  0  0  0  0
  1 22  1  0  0  0  0
  2 23  1  0  0  0  0
  2 24  1  0  0  0  0
  7 25  1  0  0  0  0
  7 26  1  0  0  0  0
  8 27  1  0  0  0  0
  8 28  1  0  0  0  0
  8 29  1  0  0  0  0
 10 30  1  0  0  0  0
 10 31  1  0  0  0  0
 15 32  1  0  0  0  0
 15 33  1  0  0  0  0
 16 34  1  0  0  0  0
 16 35  1  0  0  0  0
 16 36  1  0  0  0  0
 18 37  1  0  0  0  0
 18 38  1  0  0  0  0
 19 39  1  0  0  0  0
 19 40  1  0  0  0  0
 19 41  1  0  0  0  0
M  END
