 xtb: 6.7.1 (edcfbbe)
          04092505213D

 41 40  0     0  0            999 V2000
    5.0719   -1.0472   -1.8452 C   0  0  0  0  0  0  0  0  0  0  0  0
    4.7673   -0.2828   -0.5725 C   0  0  0  0  0  0  0  0  0  0  0  0
    3.6302    0.5980   -0.7583 O   0  0  0  0  0  0  0  0  0  0  0  0
    2.1727    0.2583   -0.2308 P   0  0  0  0  0  0  0  0  0  0  0  0
    0.9975    1.7978   -0.5273 S   0  0  0  0  0  0  0  0  0  0  0  0
    2.3507   -0.1989    1.2894 O   0  0  0  0  0  0  0  0  0  0  0  0
    2.1934    0.6686    2.4311 C   0  0  0  0  0  0  0  0  0  0  0  0
    1.4273   -0.0807    3.5033 C   0  0  0  0  0  0  0  0  0  0  0  0
    1.7213   -1.6135   -1.0778 S   0  0  0  0  0  0  0  0  0  0  0  0
   -0.0914   -1.5659   -1.0678 C   0  0  0  0  0  0  0  0  0  0  0  0
   -0.8183   -1.0500    0.5099 S   0  0  0  0  0  0  0  0  0  0  0  0
   -2.2578    0.3620   -0.2117 P   0  0  0  0  0  0  0  0  0  0  0  0
   -2.2265    0.7289   -2.1364 S   0  0  0  0  0  0  0  0  0  0  0  0
   -2.1251    1.7006    0.5955 O   0  0  0  0  0  0  0  0  0  0  0  0
   -1.7390    1.8682    1.9805 C   0  0  0  0  0  0  0  0  0  0  0  0
   -2.4636    0.9396    2.9301 C   0  0  0  0  0  0  0  0  0  0  0  0
   -3.6355   -0.2004    0.3581 O   0  0  0  0  0  0  0  0  0  0  0  0
   -4.1162   -1.5482    0.2226 C   0  0  0  0  0  0  0  0  0  0  0  0
   -4.3492   -1.9501   -1.2197 C   0  0  0  0  0  0  0  0  0  0  0  0
    5.1985   -0.3543   -2.6725 H   0  0  0  0  0  0  0  0  0  0  0  0
    5.9890   -1.6111   -1.7067 H   0  0  0  0  0  0  0  0  0  0  0  0
    4.2635   -1.7348   -2.0828 H   0  0  0  0  0  0  0  0  0  0  0  0
    5.5879    0.3877   -0.3108 H   0  0  0  0  0  0  0  0  0  0  0  0
    4.5610   -0.9609    0.2590 H   0  0  0  0  0  0  0  0  0  0  0  0
    3.1949    0.9407    2.7728 H   0  0  0  0  0  0  0  0  0  0  0  0
    1.6701    1.5769    2.1115 H   0  0  0  0  0  0  0  0  0  0  0  0
    0.4533   -0.3822    3.1278 H   0  0  0  0  0  0  0  0  0  0  0  0
    1.9765   -0.9711    3.7940 H   0  0  0  0  0  0  0  0  0  0  0  0
    1.3001    0.5639    4.3668 H   0  0  0  0  0  0  0  0  0  0  0  0
   -0.3987   -2.5874   -1.2810 H   0  0  0  0  0  0  0  0  0  0  0  0
   -0.4453   -0.8770   -1.8425 H   0  0  0  0  0  0  0  0  0  0  0  0
   -0.6564    1.7276    2.0339 H   0  0  0  0  0  0  0  0  0  0  0  0
   -1.9766    2.9148    2.1774 H   0  0  0  0  0  0  0  0  0  0  0  0
   -3.5386    1.0602    2.8260 H   0  0  0  0  0  0  0  0  0  0  0  0
   -2.2020   -0.0972    2.7228 H   0  0  0  0  0  0  0  0  0  0  0  0
   -2.1703    1.1812    3.9472 H   0  0  0  0  0  0  0  0  0  0  0  0
   -3.3977   -2.2198    0.7019 H   0  0  0  0  0  0  0  0  0  0  0  0
   -5.0504   -1.5437    0.7870 H   0  0  0  0  0  0  0  0  0  0  0  0
   -3.4102   -1.9550   -1.7706 H   0  0  0  0  0  0  0  0  0  0  0  0
   -4.7863   -2.9429   -1.2503 H   0  0  0  0  0  0  0  0  0  0  0  0
   -5.0202   -1.2453   -1.7045 H   0  0  0  0  0  0  0  0  0  0  0  0
  1  2  1  0  0  0  0
  2  3  1  0  0  0  0
  3  4  2  0  0  0  0
  4  5  2  0  0  0  0
  4  6  2  0  0  0  0
  6  7  1  0  0  0  0
  7  8  1  0  0  0  0
  4  9  1  0  0  0  0
  9 10  1  0  0  0  0
 10 11  1  0  0  0  0
 11 12  1  0  0  0  0
 12 13  2  0  0  0  0
 12 14  2  0  0  0  0
 14 15  1  0  0  0  0
 15 16  1  0  0  0  0
 12 17  2  0  0  0  0
 17 18  1  0  0  0  0
 18 19  1  0  0  0  0
  1 20  1  0  0  0  0
  1 21  1  0  0  0  0
  1 22  1  0  0  0  0
  2 23  1  0  0  0  0
  2 24  1  0  0  0  0
  7 25  1  0  0  0  0
  7 26  1  0  0  0  0
  8 27  1  0  0  0  0
  8 28  1  0  0  0  0
  8 29  1  0  0  0  0
 10 30  1  0  0  0  0
 10 31  1  0  0  0  0
 15 32  1  0  0  0  0
 15 33  1  0  0  0  0
 16 34  1  0  0  0  0
 16 35  1  0  0  0  0
 16 36  1  0  0  0  0
 18 37  1  0  0  0  0
 18 38  1  0  0  0  0
 19 39  1  0  0  0  0
 19 40  1  0  0  0  0
 19 41  1  0  0  0  0
M  END
