 xtb: 6.7.1 (edcfbbe)
          04092505203D

 41 40  0     0  0            999 V2000
    4.0879    1.4564   -1.6520 C   0  0  0  0  0  0  0  0  0  0  0  0
    2.7445    0.8774   -2.0393 C   0  0  0  0  0  0  0  0  0  0  0  0
    2.4461   -0.3086   -1.2824 O   0  0  0  0  0  0  0  0  0  0  0  0
    2.1389   -0.2784    0.2728 P   0  0  0  0  0  0  0  0  0  0  0  0
    1.1995    1.3383    0.8776 S   0  0  0  0  0  0  0  0  0  0  0  0
    3.5836   -0.4972    0.8951 O   0  0  0  0  0  0  0  0  0  0  0  0
    3.8641   -1.0520    2.1944 C   0  0  0  0  0  0  0  0  0  0  0  0
    3.0252   -0.4388    3.2961 C   0  0  0  0  0  0  0  0  0  0  0  0
    1.2522   -2.1787    0.5098 S   0  0  0  0  0  0  0  0  0  0  0  0
   -0.3392   -1.9016   -0.3059 C   0  0  0  0  0  0  0  0  0  0  0  0
   -1.5025   -0.9412    0.7156 S   0  0  0  0  0  0  0  0  0  0  0  0
   -2.1411    0.4341   -0.7791 P   0  0  0  0  0  0  0  0  0  0  0  0
   -0.8313    0.9072   -2.1538 S   0  0  0  0  0  0  0  0  0  0  0  0
   -2.8259    1.6221    0.0163 O   0  0  0  0  0  0  0  0  0  0  0  0
   -2.1394    2.6170    0.8007 C   0  0  0  0  0  0  0  0  0  0  0  0
   -2.1529    2.2493    2.2707 C   0  0  0  0  0  0  0  0  0  0  0  0
   -3.3918   -0.2332   -1.4667 O   0  0  0  0  0  0  0  0  0  0  0  0
   -4.5543   -0.7045   -0.7347 C   0  0  0  0  0  0  0  0  0  0  0  0
   -4.5962   -2.2196   -0.7429 C   0  0  0  0  0  0  0  0  0  0  0  0
    4.8651    0.7047   -1.7612 H   0  0  0  0  0  0  0  0  0  0  0  0
    4.3104    2.3076   -2.2876 H   0  0  0  0  0  0  0  0  0  0  0  0
    4.0588    1.7839   -0.6131 H   0  0  0  0  0  0  0  0  0  0  0  0
    2.7230    0.5395   -3.0762 H   0  0  0  0  0  0  0  0  0  0  0  0
    1.9405    1.6047   -1.8837 H   0  0  0  0  0  0  0  0  0  0  0  0
    3.7012   -2.1319    2.1394 H   0  0  0  0  0  0  0  0  0  0  0  0
    4.9260   -0.8439    2.3378 H   0  0  0  0  0  0  0  0  0  0  0  0
    1.9721   -0.6707    3.1385 H   0  0  0  0  0  0  0  0  0  0  0  0
    3.3364   -0.8444    4.2533 H   0  0  0  0  0  0  0  0  0  0  0  0
    3.1422    0.6425    3.3072 H   0  0  0  0  0  0  0  0  0  0  0  0
   -0.7546   -2.8913   -0.4762 H   0  0  0  0  0  0  0  0  0  0  0  0
   -0.1803   -1.3663   -1.2458 H   0  0  0  0  0  0  0  0  0  0  0  0
   -1.1152    2.7293    0.4342 H   0  0  0  0  0  0  0  0  0  0  0  0
   -2.6948    3.5383    0.6158 H   0  0  0  0  0  0  0  0  0  0  0  0
   -3.1720    2.0809    2.6067 H   0  0  0  0  0  0  0  0  0  0  0  0
   -1.5652    1.3506    2.4422 H   0  0  0  0  0  0  0  0  0  0  0  0
   -1.7132    3.0630    2.8380 H   0  0  0  0  0  0  0  0  0  0  0  0
   -4.5216   -0.3109    0.2829 H   0  0  0  0  0  0  0  0  0  0  0  0
   -5.4073   -0.2793   -1.2654 H   0  0  0  0  0  0  0  0  0  0  0  0
   -3.7751   -2.6277   -0.1589 H   0  0  0  0  0  0  0  0  0  0  0  0
   -5.5352   -2.5489   -0.3097 H   0  0  0  0  0  0  0  0  0  0  0  0
   -4.5238   -2.5870   -1.7628 H   0  0  0  0  0  0  0  0  0  0  0  0
  1  2  1  0  0  0  0
  2  3  1  0  0  0  0
  3  4  2  0  0  0  0
  4  5  2  0  0  0  0
  4  6  2  0  0  0  0
  6  7  1  0  0  0  0
  7  8  1  0  0  0  0
  4  9  1  0  0  0  0
  9 10  1  0  0  0  0
 10 11  1  0  0  0  0
 11 12  1  0  0  0  0
 12 13  2  0  0  0  0
 12 14  2  0  0  0  0
 14 15  1  0  0  0  0
 15 16  1  0  0  0  0
 12 17  2  0  0  0  0
 17 18  1  0  0  0  0
 18 19  1  0  0  0  0
  1 20  1  0  0  0  0
  1 21  1  0  0  0  0
  1 22  1  0  0  0  0
  2 23  1  0  0  0  0
  2 24  1  0  0  0  0
  7 25  1  0  0  0  0
  7 26  1  0  0  0  0
  8 27  1  0  0  0  0
  8 28  1  0  0  0  0
  8 29  1  0  0  0  0
 10 30  1  0  0  0  0
 10 31  1  0  0  0  0
 15 32  1  0  0  0  0
 15 33  1  0  0  0  0
 16 34  1  0  0  0  0
 16 35  1  0  0  0  0
 16 36  1  0  0  0  0
 18 37  1  0  0  0  0
 18 38  1  0  0  0  0
 19 39  1  0  0  0  0
 19 40  1  0  0  0  0
 19 41  1  0  0  0  0
M  END
