 xtb: 6.7.1 (edcfbbe)
          04092513573D

 41 40  0     0  0            999 V2000
    3.0257    0.3088    3.3391 C   0  0  0  0  0  0  0  0  0  0  0  0
    1.7212   -0.1974    2.7598 C   0  0  0  0  0  0  0  0  0  0  0  0
    1.4691    0.3339    1.4420 O   0  0  0  0  0  0  0  0  0  0  0  0
    2.2900   -0.1236    0.1661 P   0  0  0  0  0  0  0  0  0  0  0  0
    2.9269   -1.9808    0.1742 S   0  0  0  0  0  0  0  0  0  0  0  0
    3.4215    0.9902    0.0877 O   0  0  0  0  0  0  0  0  0  0  0  0
    4.6492    0.8266   -0.6437 C   0  0  0  0  0  0  0  0  0  0  0  0
    4.4452    0.9088   -2.1431 C   0  0  0  0  0  0  0  0  0  0  0  0
    0.9210    0.4262   -1.3517 S   0  0  0  0  0  0  0  0  0  0  0  0
   -0.0542   -1.1050   -1.3542 C   0  0  0  0  0  0  0  0  0  0  0  0
   -1.1337   -1.2974    0.0873 S   0  0  0  0  0  0  0  0  0  0  0  0
   -2.5579    0.2019   -0.4521 P   0  0  0  0  0  0  0  0  0  0  0  0
   -3.0247    0.3007   -2.3451 S   0  0  0  0  0  0  0  0  0  0  0  0
   -1.9529    1.5584    0.0808 O   0  0  0  0  0  0  0  0  0  0  0  0
   -1.6443    1.7770    1.4798 C   0  0  0  0  0  0  0  0  0  0  0  0
   -0.6929    2.9514    1.5660 C   0  0  0  0  0  0  0  0  0  0  0  0
   -3.7569   -0.0401    0.5665 O   0  0  0  0  0  0  0  0  0  0  0  0
   -4.9156   -0.8396    0.2626 C   0  0  0  0  0  0  0  0  0  0  0  0
   -4.6050   -2.3216    0.2264 C   0  0  0  0  0  0  0  0  0  0  0  0
    3.1171   -0.0359    4.3647 H   0  0  0  0  0  0  0  0  0  0  0  0
    3.8654   -0.0757    2.7619 H   0  0  0  0  0  0  0  0  0  0  0  0
    3.0525    1.3949    3.3193 H   0  0  0  0  0  0  0  0  0  0  0  0
    0.8655    0.1386    3.3471 H   0  0  0  0  0  0  0  0  0  0  0  0
    1.7217   -1.2904    2.6979 H   0  0  0  0  0  0  0  0  0  0  0  0
    5.2792    1.6409   -0.2822 H   0  0  0  0  0  0  0  0  0  0  0  0
    5.0916   -0.1367   -0.3694 H   0  0  0  0  0  0  0  0  0  0  0  0
    3.8620    0.0575   -2.4914 H   0  0  0  0  0  0  0  0  0  0  0  0
    3.9196    1.8233   -2.4057 H   0  0  0  0  0  0  0  0  0  0  0  0
    5.4131    0.8972   -2.6351 H   0  0  0  0  0  0  0  0  0  0  0  0
    0.6184   -1.9629   -1.3537 H   0  0  0  0  0  0  0  0  0  0  0  0
   -0.6643   -1.0778   -2.2575 H   0  0  0  0  0  0  0  0  0  0  0  0
   -2.5823    1.9742    2.0025 H   0  0  0  0  0  0  0  0  0  0  0  0
   -1.1931    0.8643    1.8807 H   0  0  0  0  0  0  0  0  0  0  0  0
   -1.1500    3.8335    1.1270 H   0  0  0  0  0  0  0  0  0  0  0  0
   -0.4593    3.1451    2.6080 H   0  0  0  0  0  0  0  0  0  0  0  0
    0.2251    2.7279    1.0276 H   0  0  0  0  0  0  0  0  0  0  0  0
   -5.6132   -0.5965    1.0658 H   0  0  0  0  0  0  0  0  0  0  0  0
   -5.3229   -0.5071   -0.6970 H   0  0  0  0  0  0  0  0  0  0  0  0
   -5.5322   -2.8740    0.1083 H   0  0  0  0  0  0  0  0  0  0  0  0
   -3.9506   -2.5475   -0.6138 H   0  0  0  0  0  0  0  0  0  0  0  0
   -4.1164   -2.6311    1.1466 H   0  0  0  0  0  0  0  0  0  0  0  0
  1  2  1  0  0  0  0
  2  3  1  0  0  0  0
  3  4  2  0  0  0  0
  4  5  2  0  0  0  0
  4  6  2  0  0  0  0
  6  7  1  0  0  0  0
  7  8  1  0  0  0  0
  4  9  1  0  0  0  0
  9 10  1  0  0  0  0
 10 11  1  0  0  0  0
 11 12  1  0  0  0  0
 12 13  2  0  0  0  0
 12 14  2  0  0  0  0
 14 15  1  0  0  0  0
 15 16  1  0  0  0  0
 12 17  2  0  0  0  0
 17 18  1  0  0  0  0
 18 19  1  0  0  0  0
  1 20  1  0  0  0  0
  1 21  1  0  0  0  0
  1 22  1  0  0  0  0
  2 23  1  0  0  0  0
  2 24  1  0  0  0  0
  7 25  1  0  0  0  0
  7 26  1  0  0  0  0
  8 27  1  0  0  0  0
  8 28  1  0  0  0  0
  8 29  1  0  0  0  0
 10 30  1  0  0  0  0
 10 31  1  0  0  0  0
 15 32  1  0  0  0  0
 15 33  1  0  0  0  0
 16 34  1  0  0  0  0
 16 35  1  0  0  0  0
 16 36  1  0  0  0  0
 18 37  1  0  0  0  0
 18 38  1  0  0  0  0
 19 39  1  0  0  0  0
 19 40  1  0  0  0  0
 19 41  1  0  0  0  0
M  END
