 xtb: 6.7.1 (edcfbbe)
          04092509473D

 38 37  0     0  0            999 V2000
    2.1375   -3.1093   -2.8979 C   0  0  0  0  0  0  0  0  0  0  0  0
    3.1676   -3.0175   -1.7834 C   0  0  0  0  0  0  0  0  0  0  0  0
    2.9555   -1.8327   -0.9903 O   0  0  0  0  0  0  0  0  0  0  0  0
    2.1297   -1.9014    0.0343 C   0  0  0  0  0  0  0  0  0  0  0  0
    1.5641   -2.9070    0.4009 O   0  0  0  0  0  0  0  0  0  0  0  0
    1.9564   -0.5486    0.6964 C   0  0  0  0  0  0  0  0  0  0  0  0
    1.2552    0.4161   -0.2589 C   0  0  0  0  0  0  0  0  0  0  0  0
    1.9027    0.6131   -1.1207 H   0  0  0  0  0  0  0  0  0  0  0  0
    0.9797    1.7502    0.4166 C   0  0  0  0  0  0  0  0  0  0  0  0
    1.7082    2.1961    1.2701 O   0  0  0  0  0  0  0  0  0  0  0  0
   -0.0816    2.3624   -0.0722 O   0  0  0  0  0  0  0  0  0  0  0  0
   -0.3823    3.6808    0.4355 C   0  0  0  0  0  0  0  0  0  0  0  0
    0.3846    4.7530   -0.3217 C   0  0  0  0  0  0  0  0  0  0  0  0
   -0.2331   -0.3118   -1.0250 S   0  0  0  0  0  0  0  0  0  0  0  0
   -1.6967   -0.0561    0.4907 P   0  0  0  0  0  0  0  0  0  0  0  0
   -1.1132    0.2586    2.3336 S   0  0  0  0  0  0  0  0  0  0  0  0
   -2.6944    1.0636   -0.0026 O   0  0  0  0  0  0  0  0  0  0  0  0
   -3.3034    1.0365   -1.3104 C   0  0  0  0  0  0  0  0  0  0  0  0
   -2.6025   -1.3619    0.2772 O   0  0  0  0  0  0  0  0  0  0  0  0
   -2.1791   -2.6666    0.6852 C   0  0  0  0  0  0  0  0  0  0  0  0
    2.3407   -3.9873   -3.5019 H   0  0  0  0  0  0  0  0  0  0  0  0
    1.1377   -3.1907   -2.4778 H   0  0  0  0  0  0  0  0  0  0  0  0
    2.1812   -2.2232   -3.5246 H   0  0  0  0  0  0  0  0  0  0  0  0
    4.1765   -2.9048   -2.1806 H   0  0  0  0  0  0  0  0  0  0  0  0
    3.1113   -3.8905   -1.1272 H   0  0  0  0  0  0  0  0  0  0  0  0
    2.9307   -0.1301    0.9518 H   0  0  0  0  0  0  0  0  0  0  0  0
    1.3731   -0.6747    1.6105 H   0  0  0  0  0  0  0  0  0  0  0  0
   -1.4591    3.7837    0.3022 H   0  0  0  0  0  0  0  0  0  0  0  0
   -0.1322    3.6993    1.5002 H   0  0  0  0  0  0  0  0  0  0  0  0
    0.1013    5.7261    0.0669 H   0  0  0  0  0  0  0  0  0  0  0  0
    1.4552    4.6202   -0.1829 H   0  0  0  0  0  0  0  0  0  0  0  0
    0.1528    4.7100   -1.3821 H   0  0  0  0  0  0  0  0  0  0  0  0
   -2.5292    1.0598   -2.0769 H   0  0  0  0  0  0  0  0  0  0  0  0
   -3.9194    1.9308   -1.3544 H   0  0  0  0  0  0  0  0  0  0  0  0
   -3.9133    0.1421   -1.4193 H   0  0  0  0  0  0  0  0  0  0  0  0
   -1.2186   -2.9229    0.2360 H   0  0  0  0  0  0  0  0  0  0  0  0
   -2.9546   -3.3456    0.3389 H   0  0  0  0  0  0  0  0  0  0  0  0
   -2.0909   -2.7088    1.7711 H   0  0  0  0  0  0  0  0  0  0  0  0
  1  2  1  0  0  0  0
  2  3  1  0  0  0  0
  3  4  1  0  0  0  0
  4  5  2  0  0  0  0
  4  6  1  0  0  0  0
  6  7  1  0  0  0  0
  7  8  1  0  0  0  0
  7  9  1  0  0  0  0
  9 10  2  0  0  0  0
  9 11  1  0  0  0  0
 11 12  1  0  0  0  0
 12 13  1  0  0  0  0
  7 14  1  0  0  0  0
 14 15  1  0  0  0  0
 15 16  2  0  0  0  0
 15 17  2  0  0  0  0
 17 18  1  0  0  0  0
 15 19  1  0  0  0  0
 19 20  1  0  0  0  0
  1 21  1  0  0  0  0
  1 22  1  0  0  0  0
  1 23  1  0  0  0  0
  2 24  1  0  0  0  0
  2 25  1  0  0  0  0
  6 26  1  0  0  0  0
  6 27  1  0  0  0  0
 12 28  1  0  0  0  0
 12 29  1  0  0  0  0
 13 30  1  0  0  0  0
 13 31  1  0  0  0  0
 13 32  1  0  0  0  0
 18 33  1  0  0  0  0
 18 34  1  0  0  0  0
 18 35  1  0  0  0  0
 20 36  1  0  0  0  0
 20 37  1  0  0  0  0
 20 38  1  0  0  0  0
M  END
