38
 xtb: 6.7.1 (edcfbbe)
C            5.27279226490622       -0.53062010609454        0.11374490572659
C            4.66723673353838       -1.72510553738919       -0.58403758340034
O            3.21847365514006       -1.78259623456164       -0.35813209406663
C            2.44909305763635       -1.02792911477885       -1.15526231412231
O            2.87553109613449       -0.30345816244859       -2.03769956498951
C            0.98587615279952       -1.24764605488813       -0.86217012712957
C            0.13793770213307       -0.05363792220727       -1.28028290044769
H            0.37813837206456        0.21652235636394       -2.31723306437851
C            0.35897870050553        1.22480964027811       -0.47875954047826
O           -0.31953485884447        2.22711330082808       -0.60604753995187
O            1.41131022968289        1.12516987746956        0.33010185464878
C            1.70373158888290        2.30378971279404        1.15555909328431
C            2.84521594167600        1.93717763718620        2.06624524749415
S           -1.66135632930507       -0.48791012154397       -1.39764480202860
P           -2.42197001629541       -0.17767110617512        0.56191499166361
S           -1.21708939110154       -0.51492616098664        2.04420410451663
O           -3.03086347946187        1.30316588803819        0.64290375056798
C           -3.89281474910325        1.83961981965221       -0.40420469948559
O           -3.77073633822568       -1.05523264734609        0.45287963050367
C           -3.70883347467411       -2.50612135439850        0.56803425430303
H            5.04744008333910       -0.55248674779341        1.18381310697253
H            6.36012693697167       -0.56255207960056       -0.00885412550223
H            4.90693311453746        0.40798679489177       -0.31024411980838
H            5.03171607799084       -2.66346578204973       -0.16275736475782
H            4.85242607822118       -1.71554181678607       -1.66090100183647
H            0.83940220382289       -1.49873632983019        0.18955994871317
H            0.68912928255504       -2.12279603024972       -1.45302158667340
H            1.95470788678571        3.13055634840253        0.48518577481318
H            0.79522164905440        2.55395960005228        1.71080899123878
H            3.06188442772788        2.78901268950982        2.71765007240520
H            2.58551668368157        1.08077781451822        2.69556187347294
H            3.74708019573189        1.70238163288930        1.49522836054719
H           -4.77887451355856        1.21256172596333       -0.52691855186572
H           -3.33820873666259        1.91429151555287       -1.34294328293830
H           -4.17961742762491        2.83288313815129       -0.05946724718202
H           -3.39528954641223       -2.78315448236182        1.57729728283920
H           -3.02146245180831       -2.92203103995127       -0.17371487082564
H           -4.72241127761209       -2.85744481299897        0.37608189436979
