 xtb: 6.7.1 (edcfbbe)
          04032519423D

 20 20  0     0  0            999 V2000
    0.8598    1.3901   -0.6183 C   0  0  0  0  0  0  0  0  0  0  0  0
    1.5938    0.1755   -0.0362 C   0  0  0  0  0  0  0  0  0  0  0  0
    2.5711    0.0876   -0.5348 H   0  0  0  0  0  0  0  0  0  0  0  0
    0.7743   -1.1021   -0.3272 C   0  0  0  0  0  0  0  0  0  0  0  0
    1.2069   -1.9291    0.2513 H   0  0  0  0  0  0  0  0  0  0  0  0
   -0.6786   -0.9201    0.1579 C   0  0  0  0  0  0  0  0  0  0  0  0
   -1.2880   -1.7501   -0.2125 H   0  0  0  0  0  0  0  0  0  0  0  0
   -1.2461    0.3810   -0.4475 C   0  0  0  0  0  0  0  0  0  0  0  0
   -1.2378    0.2631   -1.5536 H   0  0  0  0  0  0  0  0  0  0  0  0
   -0.4534    1.4964   -0.1071 O   0  0  0  0  0  0  0  0  0  0  0  0
   -2.5266    0.5910    0.0233 O   0  0  0  0  0  0  0  0  0  0  0  0
   -0.7735   -0.9561    1.5518 O   0  0  0  0  0  0  0  0  0  0  0  0
    0.7446   -1.3848   -1.7038 O   0  0  0  0  0  0  0  0  0  0  0  0
    1.7579    0.2632    1.3590 O   0  0  0  0  0  0  0  0  0  0  0  0
    0.8265    1.2899   -1.7116 H   0  0  0  0  0  0  0  0  0  0  0  0
    1.3514    2.3238   -0.3432 H   0  0  0  0  0  0  0  0  0  0  0  0
   -2.7631    1.5230   -0.1073 H   0  0  0  0  0  0  0  0  0  0  0  0
   -0.1702   -0.2875    1.9209 H   0  0  0  0  0  0  0  0  0  0  0  0
    1.5629   -1.8296   -1.9692 H   0  0  0  0  0  0  0  0  0  0  0  0
    2.2664    1.0568    1.5811 H   0  0  0  0  0  0  0  0  0  0  0  0
  1  2  1  0  0  0  0
  2  3  1  0  0  0  0
  2  4  1  0  0  0  0
  4  5  1  0  0  0  0
  4  6  1  0  0  0  0
  6  7  1  0  0  0  0
  6  8  1  0  0  0  0
  8  9  1  0  0  0  0
  1 10  1  0  0  0  0
  8 10  1  0  0  0  0
  8 11  1  0  0  0  0
  6 12  1  0  0  0  0
  4 13  1  0  0  0  0
  2 14  1  0  0  0  0
  1 15  1  0  0  0  0
  1 16  1  0  0  0  0
 11 17  1  0  0  0  0
 12 18  1  0  0  0  0
 13 19  1  0  0  0  0
 14 20  1  0  0  0  0
M  END
