 xtb: 6.7.1 (edcfbbe)
          04032519423D

 20 20  0     0  0            999 V2000
    0.8658    1.3826   -0.5958 C   0  0  0  0  0  0  0  0  0  0  0  0
    1.5920    0.1561   -0.0222 C   0  0  0  0  0  0  0  0  0  0  0  0
    2.5613    0.0691   -0.5245 H   0  0  0  0  0  0  0  0  0  0  0  0
    0.7655   -1.1151   -0.3171 C   0  0  0  0  0  0  0  0  0  0  0  0
    1.1929   -1.9365    0.2675 H   0  0  0  0  0  0  0  0  0  0  0  0
   -0.6876   -0.9114    0.1504 C   0  0  0  0  0  0  0  0  0  0  0  0
   -1.3047   -1.7515   -0.2028 H   0  0  0  0  0  0  0  0  0  0  0  0
   -1.2486    0.3763   -0.4746 C   0  0  0  0  0  0  0  0  0  0  0  0
   -1.2500    0.2593   -1.5779 H   0  0  0  0  0  0  0  0  0  0  0  0
   -0.4630    1.4914   -0.1250 O   0  0  0  0  0  0  0  0  0  0  0  0
   -2.5247    0.5713    0.0243 O   0  0  0  0  0  0  0  0  0  0  0  0
   -0.7087   -0.8342    1.5528 O   0  0  0  0  0  0  0  0  0  0  0  0
    0.7819   -1.3759   -1.7024 O   0  0  0  0  0  0  0  0  0  0  0  0
    1.8751    0.2855    1.3459 O   0  0  0  0  0  0  0  0  0  0  0  0
    0.8655    1.3086   -1.6913 H   0  0  0  0  0  0  0  0  0  0  0  0
    1.3628    2.2977   -0.2751 H   0  0  0  0  0  0  0  0  0  0  0  0
   -2.8091    1.4792   -0.1633 H   0  0  0  0  0  0  0  0  0  0  0  0
   -1.5873   -0.5203    1.8212 H   0  0  0  0  0  0  0  0  0  0  0  0
    1.0907   -2.2746   -1.8771 H   0  0  0  0  0  0  0  0  0  0  0  0
    1.0404    0.2065    1.8399 H   0  0  0  0  0  0  0  0  0  0  0  0
  1  2  1  0  0  0  0
  2  3  1  0  0  0  0
  2  4  1  0  0  0  0
  4  5  1  0  0  0  0
  4  6  1  0  0  0  0
  6  7  1  0  0  0  0
  6  8  1  0  0  0  0
  8  9  1  0  0  0  0
  1 10  1  0  0  0  0
  8 10  1  0  0  0  0
  8 11  1  0  0  0  0
  6 12  1  0  0  0  0
  4 13  1  0  0  0  0
  2 14  1  0  0  0  0
  1 15  1  0  0  0  0
  1 16  1  0  0  0  0
 11 17  1  0  0  0  0
 12 18  1  0  0  0  0
 13 19  1  0  0  0  0
 14 20  1  0  0  0  0
M  END
