 xtb: 6.7.1 (edcfbbe)
          04092505213D

 41 40  0     0  0            999 V2000
    3.0250   -3.1718   -0.7929 C   0  0  0  0  0  0  0  0  0  0  0  0
    3.5953   -2.1211   -1.7197 C   0  0  0  0  0  0  0  0  0  0  0  0
    3.8285   -0.8524   -1.0566 O   0  0  0  0  0  0  0  0  0  0  0  0
    2.7817   -0.0221   -0.2321 P   0  0  0  0  0  0  0  0  0  0  0  0
    3.3144    1.8521   -0.0342 S   0  0  0  0  0  0  0  0  0  0  0  0
    2.7283   -0.8280    1.1400 O   0  0  0  0  0  0  0  0  0  0  0  0
    2.0892   -0.3409    2.3324 C   0  0  0  0  0  0  0  0  0  0  0  0
    0.8549   -1.1668    2.6392 C   0  0  0  0  0  0  0  0  0  0  0  0
    0.9245   -0.3350   -1.2515 S   0  0  0  0  0  0  0  0  0  0  0  0
    0.2355    1.3208   -1.0735 C   0  0  0  0  0  0  0  0  0  0  0  0
   -0.5990    1.5745    0.5189 S   0  0  0  0  0  0  0  0  0  0  0  0
   -2.3227    0.4554    0.0431 P   0  0  0  0  0  0  0  0  0  0  0  0
   -3.0326    0.6745   -1.7766 S   0  0  0  0  0  0  0  0  0  0  0  0
   -3.3448    0.8173    1.2033 O   0  0  0  0  0  0  0  0  0  0  0  0
   -4.1353    2.0226    1.1857 C   0  0  0  0  0  0  0  0  0  0  0  0
   -5.3669    1.7858    2.0366 C   0  0  0  0  0  0  0  0  0  0  0  0
   -1.8850   -1.0035    0.4546 O   0  0  0  0  0  0  0  0  0  0  0  0
   -2.4975   -2.2035   -0.0766 C   0  0  0  0  0  0  0  0  0  0  0  0
   -1.4048   -3.1768   -0.4690 C   0  0  0  0  0  0  0  0  0  0  0  0
    3.6644   -3.2933    0.0773 H   0  0  0  0  0  0  0  0  0  0  0  0
    2.0300   -2.8788   -0.4640 H   0  0  0  0  0  0  0  0  0  0  0  0
    2.9565   -4.1150   -1.3261 H   0  0  0  0  0  0  0  0  0  0  0  0
    2.9266   -1.9417   -2.5654 H   0  0  0  0  0  0  0  0  0  0  0  0
    4.5870   -2.3949   -2.0825 H   0  0  0  0  0  0  0  0  0  0  0  0
    2.8362   -0.4432    3.1225 H   0  0  0  0  0  0  0  0  0  0  0  0
    1.8444    0.7197    2.2098 H   0  0  0  0  0  0  0  0  0  0  0  0
    0.1142   -1.0620    1.8502 H   0  0  0  0  0  0  0  0  0  0  0  0
    1.1254   -2.2147    2.7337 H   0  0  0  0  0  0  0  0  0  0  0  0
    0.4208   -0.8217    3.5720 H   0  0  0  0  0  0  0  0  0  0  0  0
   -0.4870    1.4564   -1.8787 H   0  0  0  0  0  0  0  0  0  0  0  0
    1.0413    2.0546   -1.1260 H   0  0  0  0  0  0  0  0  0  0  0  0
   -3.5228    2.8349    1.5854 H   0  0  0  0  0  0  0  0  0  0  0  0
   -4.4034    2.2512    0.1485 H   0  0  0  0  0  0  0  0  0  0  0  0
   -5.0721    1.5189    3.0472 H   0  0  0  0  0  0  0  0  0  0  0  0
   -5.9618    2.6929    2.0622 H   0  0  0  0  0  0  0  0  0  0  0  0
   -5.9613    0.9787    1.6176 H   0  0  0  0  0  0  0  0  0  0  0  0
   -3.1326   -2.6070    0.7141 H   0  0  0  0  0  0  0  0  0  0  0  0
   -3.1149   -1.9327   -0.9394 H   0  0  0  0  0  0  0  0  0  0  0  0
   -0.7806   -3.4027    0.3907 H   0  0  0  0  0  0  0  0  0  0  0  0
   -1.8602   -4.0923   -0.8321 H   0  0  0  0  0  0  0  0  0  0  0  0
   -0.7865   -2.7474   -1.2536 H   0  0  0  0  0  0  0  0  0  0  0  0
  1  2  1  0  0  0  0
  2  3  1  0  0  0  0
  3  4  2  0  0  0  0
  4  5  2  0  0  0  0
  4  6  2  0  0  0  0
  6  7  1  0  0  0  0
  7  8  1  0  0  0  0
  4  9  1  0  0  0  0
  9 10  1  0  0  0  0
 10 11  1  0  0  0  0
 11 12  1  0  0  0  0
 12 13  2  0  0  0  0
 12 14  2  0  0  0  0
 14 15  1  0  0  0  0
 15 16  1  0  0  0  0
 12 17  2  0  0  0  0
 17 18  1  0  0  0  0
 18 19  1  0  0  0  0
  1 20  1  0  0  0  0
  1 21  1  0  0  0  0
  1 22  1  0  0  0  0
  2 23  1  0  0  0  0
  2 24  1  0  0  0  0
  7 25  1  0  0  0  0
  7 26  1  0  0  0  0
  8 27  1  0  0  0  0
  8 28  1  0  0  0  0
  8 29  1  0  0  0  0
 10 30  1  0  0  0  0
 10 31  1  0  0  0  0
 15 32  1  0  0  0  0
 15 33  1  0  0  0  0
 16 34  1  0  0  0  0
 16 35  1  0  0  0  0
 16 36  1  0  0  0  0
 18 37  1  0  0  0  0
 18 38  1  0  0  0  0
 19 39  1  0  0  0  0
 19 40  1  0  0  0  0
 19 41  1  0  0  0  0
M  END
