41
 xtb: 6.7.1 (edcfbbe)
C            5.93677859742354       -0.16341970028299       -0.72339131274431
C            4.62876911611841       -0.88217573743239       -0.52279799566657
O            3.65536350596843        0.07559844321481        0.03097800030152
P            2.22874688689481        0.30628516860523       -0.67564024314947
S            2.19419435860213        0.72621484279237       -2.57341623836969
O            1.64366785990414        1.51344936789149        0.20247459681528
C            1.66135000242330        1.48046965429652        1.67689342941822
C            0.92018849190502        2.70109637342580        2.15558222368953
S            1.25210281696453       -1.49699445242304       -0.11602130446681
C           -0.12587754503913       -1.60568404117077       -1.34660613185184
S           -1.75794072709491       -1.95421623980704       -0.59678333119046
P           -2.31570101803180       -0.00244503951683        0.04872600601284
S           -2.08034791967428        1.42208453896731       -1.24959867785116
O           -1.50308330747635        0.30379933711849        1.39361403678280
C           -1.53103311854774       -0.60661083414077        2.55531539371421
C           -1.85991192754633        0.21012264794592        3.77693062727000
O           -3.79543422584464       -0.31188761539288        0.59546060422943
C           -5.01517893866581       -0.03442013029886       -0.18022755505225
C           -5.25541730955733       -1.07096831092882       -1.24808358751864
H            5.83207247673732        0.63809483099805       -1.46012788504833
H            6.29894819468966        0.26004889149496        0.21762118255935
H            6.68124603069439       -0.87738932713792       -1.08969539786608
H            4.70909509687950       -1.69022919811591        0.20853681747140
H            4.24469809503308       -1.28812391469885       -1.46359191632354
H            1.18066282219463        0.55338922129873        2.00714449385206
H            2.70445111900158        1.48615221276277        2.00368435111804
H           -0.11557218811417        2.69666810834850        1.80570282173591
H            0.91785132247261        2.70523024061644        3.24991368417866
H            1.41198556650294        3.61461643810540        1.80932993622600
H            0.07995954427284       -2.44881710204643       -2.01037850386719
H           -0.16927620183066       -0.68516724057729       -1.93730105546990
H           -2.26757197583380       -1.39727140626405        2.39038887048976
H           -0.53570903226467       -1.05507615735342        2.61126391389914
H           -2.86096759151043        0.64335262145135        3.69833755181410
H           -1.83037010253285       -0.44018562254212        4.65693863142319
H           -1.13181411465733        1.01429722542659        3.91764674892250
H           -5.80220846991950       -0.04480395170620        0.57611341553951
H           -4.93159175653746        0.97354320691921       -0.59663433824308
H           -5.27956300227560       -2.07766415488696       -0.82083921533324
H           -6.22664710957779       -0.87042221656772       -1.71228849813847
H           -4.49104844121405       -1.02997760879603       -2.02918358914897
