38
 xtb: 6.7.1 (edcfbbe)
C            5.87960732114723       -2.08241871379865       -1.06240255197686
C            4.81609331691630       -1.13026265802792       -1.54319146896530
O            3.53504125989116       -1.61463675013073       -1.01741845196396
C            2.45575125521530       -0.88948001954852       -1.33046621540360
O            2.48478777821108        0.12091580680857       -2.01076965280439
C            1.19090661084648       -1.51390501688555       -0.78981016763681
C            0.22470550096688       -0.45142367857623       -0.25584523005651
H            0.15864291344324        0.37542482865021       -0.97664695913553
C            0.67401421402616        0.16238968666040        1.06506144539236
O           -0.06644745490611        0.50787618222774        1.96310604107974
O            2.00177752959814        0.31275510380259        1.06980442930015
C            2.59214809153984        1.02790243744960        2.20974394624770
C            2.47189805694182        2.51991662904167        2.01441871969586
S           -1.45507215941995       -1.19556285784088       -0.13119208456611
P           -2.70800637616088        0.52268397774027       -0.11434163402766
S           -2.02362683027309        2.08306914352368       -1.04508653228363
O           -4.08369525564999       -0.13627399313360       -0.64003707665469
C           -4.25745968854417       -0.43657717708936       -2.05358532753472
O           -3.10953324139462        0.86983036967335        1.39831553945497
C           -3.57210152218115       -0.16091525892045        2.32029300013352
H            5.69763794192779       -3.09535590160606       -1.43183555693305
H            6.85066542535965       -1.74869560626735       -1.43956111328638
H            5.92436612695355       -2.10355024758766        0.02991245671900
H            4.74817122457812       -1.10314243090910       -2.63428166550169
H            4.97213497788823       -0.11441570640535       -1.16893857119530
H            1.42739674967038       -2.25993357741366       -0.02884564317038
H            0.72776406242510       -2.02916151029981       -1.63994175331582
H            2.10309905800047        0.68383569129272        3.12383140030198
H            3.63257702023177        0.69981099838255        2.20697041627167
H            2.96920456679968        3.02673997602432        2.84720200928537
H            2.95704332082415        2.82933978967291        1.08446921291517
H            1.42570925771980        2.83662811248320        1.99514899262275
H           -5.24489077999151       -0.88967704723829       -2.13632569308568
H           -3.49238867763602       -1.13976652201343       -2.39316494686876
H           -4.21336784597247        0.48621069039869       -2.63668636556230
H           -2.79907071693485       -0.92242728265893        2.45189191445012
H           -4.49806197307491       -0.60963880583398        1.95386506384001
H           -3.75079504652871        0.35496666947958        3.26337207772105
