 xtb: 6.7.1 (edcfbbe)
          04092505213D

 41 40  0     0  0            999 V2000
    5.6917   -1.7837    0.4502 C   0  0  0  0  0  0  0  0  0  0  0  0
    4.4071   -1.5956   -0.3315 C   0  0  0  0  0  0  0  0  0  0  0  0
    3.5616   -0.6964    0.4148 O   0  0  0  0  0  0  0  0  0  0  0  0
    2.3540    0.0726   -0.2705 P   0  0  0  0  0  0  0  0  0  0  0  0
    2.7886    0.9878   -1.9551 S   0  0  0  0  0  0  0  0  0  0  0  0
    1.8348    0.9792    0.9162 O   0  0  0  0  0  0  0  0  0  0  0  0
    2.2407    2.3541    1.0659 C   0  0  0  0  0  0  0  0  0  0  0  0
    3.6988    2.4606    1.4585 C   0  0  0  0  0  0  0  0  0  0  0  0
    0.8360   -1.3894   -0.3738 S   0  0  0  0  0  0  0  0  0  0  0  0
   -0.2138   -0.5029   -1.5511 C   0  0  0  0  0  0  0  0  0  0  0  0
   -0.9683    1.0069   -0.8641 S   0  0  0  0  0  0  0  0  0  0  0  0
   -2.6834    0.1388    0.0155 P   0  0  0  0  0  0  0  0  0  0  0  0
   -3.9407    1.3524    0.8971 S   0  0  0  0  0  0  0  0  0  0  0  0
   -2.1530   -1.0656    0.9177 O   0  0  0  0  0  0  0  0  0  0  0  0
   -1.9958   -0.9436    2.3398 C   0  0  0  0  0  0  0  0  0  0  0  0
   -0.8889    0.0202    2.7149 C   0  0  0  0  0  0  0  0  0  0  0  0
   -3.2280   -0.6331   -1.2614 O   0  0  0  0  0  0  0  0  0  0  0  0
   -4.6031   -1.0604   -1.3570 C   0  0  0  0  0  0  0  0  0  0  0  0
   -4.9280   -2.1536   -0.3609 C   0  0  0  0  0  0  0  0  0  0  0  0
    6.3291   -2.4863   -0.0765 H   0  0  0  0  0  0  0  0  0  0  0  0
    6.2120   -0.8357    0.5524 H   0  0  0  0  0  0  0  0  0  0  0  0
    5.4684   -2.1711    1.4399 H   0  0  0  0  0  0  0  0  0  0  0  0
    3.8728   -2.5412   -0.4554 H   0  0  0  0  0  0  0  0  0  0  0  0
    4.5967   -1.1588   -1.3179 H   0  0  0  0  0  0  0  0  0  0  0  0
    2.0491    2.8774    0.1235 H   0  0  0  0  0  0  0  0  0  0  0  0
    1.5787    2.7409    1.8416 H   0  0  0  0  0  0  0  0  0  0  0  0
    3.8900    1.8730    2.3524 H   0  0  0  0  0  0  0  0  0  0  0  0
    4.3247    2.0861    0.6492 H   0  0  0  0  0  0  0  0  0  0  0  0
    3.9480    3.5002    1.6459 H   0  0  0  0  0  0  0  0  0  0  0  0
   -0.9940   -1.1855   -1.8727 H   0  0  0  0  0  0  0  0  0  0  0  0
    0.3988   -0.1714   -2.3899 H   0  0  0  0  0  0  0  0  0  0  0  0
   -2.9476   -0.6064    2.7632 H   0  0  0  0  0  0  0  0  0  0  0  0
   -1.7757   -1.9597    2.6689 H   0  0  0  0  0  0  0  0  0  0  0  0
    0.0591   -0.2928    2.2843 H   0  0  0  0  0  0  0  0  0  0  0  0
   -1.1301    1.0175    2.3449 H   0  0  0  0  0  0  0  0  0  0  0  0
   -0.7954    0.0592    3.7954 H   0  0  0  0  0  0  0  0  0  0  0  0
   -5.2465   -0.1895   -1.1981 H   0  0  0  0  0  0  0  0  0  0  0  0
   -4.6957   -1.4076   -2.3870 H   0  0  0  0  0  0  0  0  0  0  0  0
   -4.2195   -2.9725   -0.4539 H   0  0  0  0  0  0  0  0  0  0  0  0
   -4.8790   -1.7570    0.6523 H   0  0  0  0  0  0  0  0  0  0  0  0
   -5.9325   -2.5207   -0.5465 H   0  0  0  0  0  0  0  0  0  0  0  0
  1  2  1  0  0  0  0
  2  3  1  0  0  0  0
  3  4  2  0  0  0  0
  4  5  2  0  0  0  0
  4  6  2  0  0  0  0
  6  7  1  0  0  0  0
  7  8  1  0  0  0  0
  4  9  1  0  0  0  0
  9 10  1  0  0  0  0
 10 11  1  0  0  0  0
 11 12  1  0  0  0  0
 12 13  2  0  0  0  0
 12 14  2  0  0  0  0
 14 15  1  0  0  0  0
 15 16  1  0  0  0  0
 12 17  2  0  0  0  0
 17 18  1  0  0  0  0
 18 19  1  0  0  0  0
  1 20  1  0  0  0  0
  1 21  1  0  0  0  0
  1 22  1  0  0  0  0
  2 23  1  0  0  0  0
  2 24  1  0  0  0  0
  7 25  1  0  0  0  0
  7 26  1  0  0  0  0
  8 27  1  0  0  0  0
  8 28  1  0  0  0  0
  8 29  1  0  0  0  0
 10 30  1  0  0  0  0
 10 31  1  0  0  0  0
 15 32  1  0  0  0  0
 15 33  1  0  0  0  0
 16 34  1  0  0  0  0
 16 35  1  0  0  0  0
 16 36  1  0  0  0  0
 18 37  1  0  0  0  0
 18 38  1  0  0  0  0
 19 39  1  0  0  0  0
 19 40  1  0  0  0  0
 19 41  1  0  0  0  0
M  END
