 xtb: 6.7.1 (edcfbbe)
          04092514033D

 41 40  0     0  0            999 V2000
    2.5383   -1.3088    3.2272 C   0  0  0  0  0  0  0  0  0  0  0  0
    1.9981    0.0382    2.7909 C   0  0  0  0  0  0  0  0  0  0  0  0
    1.4502    0.0128    1.4544 O   0  0  0  0  0  0  0  0  0  0  0  0
    2.3095   -0.1406    0.1298 P   0  0  0  0  0  0  0  0  0  0  0  0
    3.0132   -1.9157   -0.3308 S   0  0  0  0  0  0  0  0  0  0  0  0
    3.4158    0.9821    0.3427 O   0  0  0  0  0  0  0  0  0  0  0  0
    4.6790    0.9974   -0.3467 C   0  0  0  0  0  0  0  0  0  0  0  0
    4.5467    1.4679   -1.7804 C   0  0  0  0  0  0  0  0  0  0  0  0
    0.9335    0.6845   -1.2511 S   0  0  0  0  0  0  0  0  0  0  0  0
    0.0906   -0.8472   -1.7320 C   0  0  0  0  0  0  0  0  0  0  0  0
   -0.8987   -1.5886   -0.4027 S   0  0  0  0  0  0  0  0  0  0  0  0
   -2.2911   -0.0048   -0.1649 P   0  0  0  0  0  0  0  0  0  0  0  0
   -2.8169    0.9311   -1.8072 S   0  0  0  0  0  0  0  0  0  0  0  0
   -1.6145    0.8733    0.9614 O   0  0  0  0  0  0  0  0  0  0  0  0
   -1.6143    2.3137    0.9613 C   0  0  0  0  0  0  0  0  0  0  0  0
   -2.8768    2.8569    1.5979 C   0  0  0  0  0  0  0  0  0  0  0  0
   -3.4500   -0.6864    0.6803 O   0  0  0  0  0  0  0  0  0  0  0  0
   -4.3558   -1.6699    0.1342 C   0  0  0  0  0  0  0  0  0  0  0  0
   -5.6752   -1.0345   -0.2630 C   0  0  0  0  0  0  0  0  0  0  0  0
    1.7823   -2.0791    3.0931 H   0  0  0  0  0  0  0  0  0  0  0  0
    3.4148   -1.5802    2.6412 H   0  0  0  0  0  0  0  0  0  0  0  0
    2.8154   -1.2580    4.2759 H   0  0  0  0  0  0  0  0  0  0  0  0
    2.7758    0.8046    2.8309 H   0  0  0  0  0  0  0  0  0  0  0  0
    1.1475    0.3396    3.4050 H   0  0  0  0  0  0  0  0  0  0  0  0
    5.2893    1.6835    0.2430 H   0  0  0  0  0  0  0  0  0  0  0  0
    5.1072   -0.0095   -0.3096 H   0  0  0  0  0  0  0  0  0  0  0  0
    5.5380    1.5723   -2.2110 H   0  0  0  0  0  0  0  0  0  0  0  0
    3.9824    0.7425   -2.3638 H   0  0  0  0  0  0  0  0  0  0  0  0
    4.0346    2.4256   -1.8210 H   0  0  0  0  0  0  0  0  0  0  0  0
    0.8262   -1.5995   -2.0163 H   0  0  0  0  0  0  0  0  0  0  0  0
   -0.5567   -0.5850   -2.5684 H   0  0  0  0  0  0  0  0  0  0  0  0
   -0.7230    2.5831    1.5304 H   0  0  0  0  0  0  0  0  0  0  0  0
   -1.5122    2.6689   -0.0698 H   0  0  0  0  0  0  0  0  0  0  0  0
   -2.8097    3.9388    1.6591 H   0  0  0  0  0  0  0  0  0  0  0  0
   -3.7409    2.5871    0.9931 H   0  0  0  0  0  0  0  0  0  0  0  0
   -3.0028    2.4445    2.5952 H   0  0  0  0  0  0  0  0  0  0  0  0
   -3.8853   -2.1642   -0.7206 H   0  0  0  0  0  0  0  0  0  0  0  0
   -4.4944   -2.3946    0.9391 H   0  0  0  0  0  0  0  0  0  0  0  0
   -6.3626   -1.8134   -0.5786 H   0  0  0  0  0  0  0  0  0  0  0  0
   -6.1030   -0.5020    0.5818 H   0  0  0  0  0  0  0  0  0  0  0  0
   -5.5298   -0.3355   -1.0836 H   0  0  0  0  0  0  0  0  0  0  0  0
  1  2  1  0  0  0  0
  2  3  1  0  0  0  0
  3  4  2  0  0  0  0
  4  5  2  0  0  0  0
  4  6  2  0  0  0  0
  6  7  1  0  0  0  0
  7  8  1  0  0  0  0
  4  9  1  0  0  0  0
  9 10  1  0  0  0  0
 10 11  1  0  0  0  0
 11 12  1  0  0  0  0
 12 13  2  0  0  0  0
 12 14  2  0  0  0  0
 14 15  1  0  0  0  0
 15 16  1  0  0  0  0
 12 17  2  0  0  0  0
 17 18  1  0  0  0  0
 18 19  1  0  0  0  0
  1 20  1  0  0  0  0
  1 21  1  0  0  0  0
  1 22  1  0  0  0  0
  2 23  1  0  0  0  0
  2 24  1  0  0  0  0
  7 25  1  0  0  0  0
  7 26  1  0  0  0  0
  8 27  1  0  0  0  0
  8 28  1  0  0  0  0
  8 29  1  0  0  0  0
 10 30  1  0  0  0  0
 10 31  1  0  0  0  0
 15 32  1  0  0  0  0
 15 33  1  0  0  0  0
 16 34  1  0  0  0  0
 16 35  1  0  0  0  0
 16 36  1  0  0  0  0
 18 37  1  0  0  0  0
 18 38  1  0  0  0  0
 19 39  1  0  0  0  0
 19 40  1  0  0  0  0
 19 41  1  0  0  0  0
M  END
