 xtb: 6.7.1 (edcfbbe)
          04092507313D

 38 37  0     0  0            999 V2000
    3.2488   -3.1580    0.4913 C   0  0  0  0  0  0  0  0  0  0  0  0
    2.8561   -1.7539    0.9203 C   0  0  0  0  0  0  0  0  0  0  0  0
    2.6798   -0.8935   -0.2232 O   0  0  0  0  0  0  0  0  0  0  0  0
    1.5415   -0.9249   -0.8748 C   0  0  0  0  0  0  0  0  0  0  0  0
    0.5893   -1.6221   -0.5724 O   0  0  0  0  0  0  0  0  0  0  0  0
    1.5229    0.0343   -2.0441 C   0  0  0  0  0  0  0  0  0  0  0  0
    0.3391    0.9967   -1.9083 C   0  0  0  0  0  0  0  0  0  0  0  0
    0.2877    1.6416   -2.7894 H   0  0  0  0  0  0  0  0  0  0  0  0
    0.4468    1.8671   -0.6685 C   0  0  0  0  0  0  0  0  0  0  0  0
   -0.4802    2.0242    0.1016 O   0  0  0  0  0  0  0  0  0  0  0  0
    1.6304    2.4033   -0.5493 O   0  0  0  0  0  0  0  0  0  0  0  0
    1.9270    3.1843    0.6297 C   0  0  0  0  0  0  0  0  0  0  0  0
    2.4912    2.2902    1.7213 C   0  0  0  0  0  0  0  0  0  0  0  0
   -1.2760    0.1413   -1.8690 S   0  0  0  0  0  0  0  0  0  0  0  0
   -1.6210   -0.2791    0.1763 P   0  0  0  0  0  0  0  0  0  0  0  0
   -0.5093   -0.2849    1.8094 S   0  0  0  0  0  0  0  0  0  0  0  0
   -2.9015    0.6707    0.2893 O   0  0  0  0  0  0  0  0  0  0  0  0
   -3.6499    0.7893    1.5012 C   0  0  0  0  0  0  0  0  0  0  0  0
   -2.3981   -1.6827    0.0498 O   0  0  0  0  0  0  0  0  0  0  0  0
   -1.8359   -2.9684    0.2991 C   0  0  0  0  0  0  0  0  0  0  0  0
    2.4435   -3.6160   -0.0784 H   0  0  0  0  0  0  0  0  0  0  0  0
    4.1451   -3.1248   -0.1219 H   0  0  0  0  0  0  0  0  0  0  0  0
    3.4391   -3.7589    1.3742 H   0  0  0  0  0  0  0  0  0  0  0  0
    3.6493   -1.2767    1.4952 H   0  0  0  0  0  0  0  0  0  0  0  0
    1.9286   -1.7608    1.5002 H   0  0  0  0  0  0  0  0  0  0  0  0
    1.3950   -0.5421   -2.9610 H   0  0  0  0  0  0  0  0  0  0  0  0
    2.4579    0.5926   -2.0701 H   0  0  0  0  0  0  0  0  0  0  0  0
    2.6612    3.9149    0.2905 H   0  0  0  0  0  0  0  0  0  0  0  0
    1.0122    3.6805    0.9634 H   0  0  0  0  0  0  0  0  0  0  0  0
    1.7471    1.5579    2.0329 H   0  0  0  0  0  0  0  0  0  0  0  0
    3.3696    1.7650    1.3568 H   0  0  0  0  0  0  0  0  0  0  0  0
    2.7628    2.8967    2.5784 H   0  0  0  0  0  0  0  0  0  0  0  0
   -2.9748    0.9231    2.3493 H   0  0  0  0  0  0  0  0  0  0  0  0
   -4.2587   -0.1026    1.6511 H   0  0  0  0  0  0  0  0  0  0  0  0
   -4.2765    1.6682    1.3733 H   0  0  0  0  0  0  0  0  0  0  0  0
   -1.1487   -2.9169    1.1454 H   0  0  0  0  0  0  0  0  0  0  0  0
   -1.3007   -3.3145   -0.5829 H   0  0  0  0  0  0  0  0  0  0  0  0
   -2.6768   -3.6193    0.5266 H   0  0  0  0  0  0  0  0  0  0  0  0
  1  2  1  0  0  0  0
  2  3  1  0  0  0  0
  3  4  4  0  0  0  0
  4  5  2  0  0  0  0
  4  6  1  0  0  0  0
  6  7  1  0  0  0  0
  7  8  1  0  0  0  0
  7  9  1  0  0  0  0
  9 10  2  0  0  0  0
  9 11  4  0  0  0  0
 11 12  1  0  0  0  0
 12 13  1  0  0  0  0
  7 14  1  0  0  0  0
 14 15  1  0  0  0  0
 15 16  2  0  0  0  0
 15 17  1  0  0  0  0
 17 18  1  0  0  0  0
 15 19  1  0  0  0  0
 19 20  1  0  0  0  0
  1 21  1  0  0  0  0
  1 22  1  0  0  0  0
  1 23  1  0  0  0  0
  2 24  1  0  0  0  0
  2 25  1  0  0  0  0
  6 26  1  0  0  0  0
  6 27  1  0  0  0  0
 12 28  1  0  0  0  0
 12 29  1  0  0  0  0
 13 30  1  0  0  0  0
 13 31  1  0  0  0  0
 13 32  1  0  0  0  0
 18 33  1  0  0  0  0
 18 34  1  0  0  0  0
 18 35  1  0  0  0  0
 20 36  1  0  0  0  0
 20 37  1  0  0  0  0
 20 38  1  0  0  0  0
M  END
