 xtb: 6.7.1 (edcfbbe)
          04092505213D

 41 40  0     0  0            999 V2000
    1.4217    2.0164   -1.8154 C   0  0  0  0  0  0  0  0  0  0  0  0
    2.2986    0.8004   -2.0311 C   0  0  0  0  0  0  0  0  0  0  0  0
    2.1327   -0.1813   -0.9971 O   0  0  0  0  0  0  0  0  0  0  0  0
    2.4983    0.1261    0.5300 P   0  0  0  0  0  0  0  0  0  0  0  0
    4.0144    1.3458    0.7574 S   0  0  0  0  0  0  0  0  0  0  0  0
    2.6899   -1.3419    1.1012 O   0  0  0  0  0  0  0  0  0  0  0  0
    3.8886   -2.0971    0.8039 C   0  0  0  0  0  0  0  0  0  0  0  0
    4.0374   -3.1708    1.8614 C   0  0  0  0  0  0  0  0  0  0  0  0
    0.7009    0.5906    1.5046 S   0  0  0  0  0  0  0  0  0  0  0  0
   -0.1701   -1.0042    1.2167 C   0  0  0  0  0  0  0  0  0  0  0  0
   -1.9504   -0.7895    1.2990 S   0  0  0  0  0  0  0  0  0  0  0  0
   -2.1797    0.0295   -0.6610 P   0  0  0  0  0  0  0  0  0  0  0  0
   -1.1457   -0.8418   -2.0733 S   0  0  0  0  0  0  0  0  0  0  0  0
   -1.7959    1.5529   -0.5191 O   0  0  0  0  0  0  0  0  0  0  0  0
   -2.3765    2.4563    0.4519 C   0  0  0  0  0  0  0  0  0  0  0  0
   -3.5549    3.2023   -0.1386 C   0  0  0  0  0  0  0  0  0  0  0  0
   -3.7529    0.0737   -0.8754 O   0  0  0  0  0  0  0  0  0  0  0  0
   -4.4977   -1.0388   -1.4040 C   0  0  0  0  0  0  0  0  0  0  0  0
   -4.4847   -2.2362   -0.4764 C   0  0  0  0  0  0  0  0  0  0  0  0
    1.6944    2.5060   -0.8799 H   0  0  0  0  0  0  0  0  0  0  0  0
    1.5653    2.7135   -2.6344 H   0  0  0  0  0  0  0  0  0  0  0  0
    0.3736    1.7286   -1.7709 H   0  0  0  0  0  0  0  0  0  0  0  0
    3.3531    1.0920   -2.0589 H   0  0  0  0  0  0  0  0  0  0  0  0
    2.0279    0.2672   -2.9439 H   0  0  0  0  0  0  0  0  0  0  0  0
    3.7770   -2.5257   -0.1950 H   0  0  0  0  0  0  0  0  0  0  0  0
    4.7414   -1.4095    0.8065 H   0  0  0  0  0  0  0  0  0  0  0  0
    4.9319   -3.7493    1.6546 H   0  0  0  0  0  0  0  0  0  0  0  0
    4.1239   -2.7162    2.8443 H   0  0  0  0  0  0  0  0  0  0  0  0
    3.1733   -3.8286    1.8504 H   0  0  0  0  0  0  0  0  0  0  0  0
    0.1089   -1.6997    2.0028 H   0  0  0  0  0  0  0  0  0  0  0  0
    0.1038   -1.3767    0.2277 H   0  0  0  0  0  0  0  0  0  0  0  0
   -2.6704    1.8850    1.3367 H   0  0  0  0  0  0  0  0  0  0  0  0
   -1.5601    3.1332    0.7111 H   0  0  0  0  0  0  0  0  0  0  0  0
   -4.3593    2.5115   -0.3759 H   0  0  0  0  0  0  0  0  0  0  0  0
   -3.9090    3.9305    0.5842 H   0  0  0  0  0  0  0  0  0  0  0  0
   -3.2533    3.7169   -1.0469 H   0  0  0  0  0  0  0  0  0  0  0  0
   -5.5049   -0.6394   -1.5307 H   0  0  0  0  0  0  0  0  0  0  0  0
   -4.0776   -1.3018   -2.3796 H   0  0  0  0  0  0  0  0  0  0  0  0
   -3.4858   -2.6672   -0.4350 H   0  0  0  0  0  0  0  0  0  0  0  0
   -4.7810   -1.9414    0.5271 H   0  0  0  0  0  0  0  0  0  0  0  0
   -5.1747   -2.9855   -0.8511 H   0  0  0  0  0  0  0  0  0  0  0  0
  1  2  1  0  0  0  0
  2  3  1  0  0  0  0
  3  4  1  0  0  0  0
  4  5  2  0  0  0  0
  4  6  2  0  0  0  0
  6  7  1  0  0  0  0
  7  8  1  0  0  0  0
  4  9  1  0  0  0  0
  9 10  1  0  0  0  0
 10 11  1  0  0  0  0
 11 12  1  0  0  0  0
 12 13  2  0  0  0  0
 12 14  2  0  0  0  0
 14 15  1  0  0  0  0
 15 16  1  0  0  0  0
 12 17  2  0  0  0  0
 17 18  1  0  0  0  0
 18 19  1  0  0  0  0
  1 20  1  0  0  0  0
  1 21  1  0  0  0  0
  1 22  1  0  0  0  0
  2 23  1  0  0  0  0
  2 24  1  0  0  0  0
  7 25  1  0  0  0  0
  7 26  1  0  0  0  0
  8 27  1  0  0  0  0
  8 28  1  0  0  0  0
  8 29  1  0  0  0  0
 10 30  1  0  0  0  0
 10 31  1  0  0  0  0
 15 32  1  0  0  0  0
 15 33  1  0  0  0  0
 16 34  1  0  0  0  0
 16 35  1  0  0  0  0
 16 36  1  0  0  0  0
 18 37  1  0  0  0  0
 18 38  1  0  0  0  0
 19 39  1  0  0  0  0
 19 40  1  0  0  0  0
 19 41  1  0  0  0  0
M  END
