 xtb: 6.7.1 (edcfbbe)
          04092505213D

 41 40  0     0  0            999 V2000
    4.1417   -2.2766   -0.5781 C   0  0  0  0  0  0  0  0  0  0  0  0
    4.6495   -0.8578   -0.4254 C   0  0  0  0  0  0  0  0  0  0  0  0
    3.6663    0.0227    0.1518 O   0  0  0  0  0  0  0  0  0  0  0  0
    2.3141    0.3963   -0.5949 P   0  0  0  0  0  0  0  0  0  0  0  0
    2.4517    0.6849   -2.5216 S   0  0  0  0  0  0  0  0  0  0  0  0
    1.8461    1.6977    0.1641 O   0  0  0  0  0  0  0  0  0  0  0  0
    1.8667    1.8365    1.6052 C   0  0  0  0  0  0  0  0  0  0  0  0
    3.1237    2.5488    2.0571 C   0  0  0  0  0  0  0  0  0  0  0  0
    0.9667   -1.1417    0.0174 S   0  0  0  0  0  0  0  0  0  0  0  0
   -0.1823   -0.9890   -1.3713 C   0  0  0  0  0  0  0  0  0  0  0  0
   -1.1989    0.5173   -1.3257 S   0  0  0  0  0  0  0  0  0  0  0  0
   -2.2572    0.1392    0.4928 P   0  0  0  0  0  0  0  0  0  0  0  0
   -1.3848    0.7033    2.1479 S   0  0  0  0  0  0  0  0  0  0  0  0
   -2.6266   -1.4072    0.3818 O   0  0  0  0  0  0  0  0  0  0  0  0
   -2.2257   -2.3894    1.3598 C   0  0  0  0  0  0  0  0  0  0  0  0
   -3.2642   -2.4962    2.4579 C   0  0  0  0  0  0  0  0  0  0  0  0
   -3.6144    0.9230    0.2947 O   0  0  0  0  0  0  0  0  0  0  0  0
   -4.7800    0.4546   -0.4280 C   0  0  0  0  0  0  0  0  0  0  0  0
   -4.4993    0.1445   -1.8824 C   0  0  0  0  0  0  0  0  0  0  0  0
    3.7323   -2.6365    0.3626 H   0  0  0  0  0  0  0  0  0  0  0  0
    3.3644   -2.3148   -1.3395 H   0  0  0  0  0  0  0  0  0  0  0  0
    4.9631   -2.9170   -0.8829 H   0  0  0  0  0  0  0  0  0  0  0  0
    4.9463   -0.4488   -1.3959 H   0  0  0  0  0  0  0  0  0  0  0  0
    5.4858   -0.8030    0.2729 H   0  0  0  0  0  0  0  0  0  0  0  0
    0.9710    2.4149    1.8409 H   0  0  0  0  0  0  0  0  0  0  0  0
    1.7783    0.8475    2.0631 H   0  0  0  0  0  0  0  0  0  0  0  0
    3.2079    3.5070    1.5516 H   0  0  0  0  0  0  0  0  0  0  0  0
    3.0677    2.7114    3.1288 H   0  0  0  0  0  0  0  0  0  0  0  0
    4.0012    1.9503    1.8281 H   0  0  0  0  0  0  0  0  0  0  0  0
   -0.8206   -1.8679   -1.3554 H   0  0  0  0  0  0  0  0  0  0  0  0
    0.3855   -0.9262   -2.3008 H   0  0  0  0  0  0  0  0  0  0  0  0
   -2.1367   -3.3198    0.7971 H   0  0  0  0  0  0  0  0  0  0  0  0
   -1.2522   -2.1110    1.7733 H   0  0  0  0  0  0  0  0  0  0  0  0
   -3.3406   -1.5472    2.9862 H   0  0  0  0  0  0  0  0  0  0  0  0
   -4.2348   -2.7495    2.0400 H   0  0  0  0  0  0  0  0  0  0  0  0
   -2.9637   -3.2669    3.1602 H   0  0  0  0  0  0  0  0  0  0  0  0
   -5.1652   -0.4264    0.0892 H   0  0  0  0  0  0  0  0  0  0  0  0
   -5.4823    1.2829   -0.3223 H   0  0  0  0  0  0  0  0  0  0  0  0
   -3.8385   -0.7153   -1.9661 H   0  0  0  0  0  0  0  0  0  0  0  0
   -5.4373   -0.0802   -2.3809 H   0  0  0  0  0  0  0  0  0  0  0  0
   -4.0304    0.9958   -2.3703 H   0  0  0  0  0  0  0  0  0  0  0  0
  1  2  1  0  0  0  0
  2  3  1  0  0  0  0
  3  4  2  0  0  0  0
  4  5  2  0  0  0  0
  4  6  2  0  0  0  0
  6  7  1  0  0  0  0
  7  8  1  0  0  0  0
  4  9  1  0  0  0  0
  9 10  1  0  0  0  0
 10 11  1  0  0  0  0
 11 12  1  0  0  0  0
 12 13  2  0  0  0  0
 12 14  2  0  0  0  0
 14 15  1  0  0  0  0
 15 16  1  0  0  0  0
 12 17  2  0  0  0  0
 17 18  1  0  0  0  0
 18 19  1  0  0  0  0
  1 20  1  0  0  0  0
  1 21  1  0  0  0  0
  1 22  1  0  0  0  0
  2 23  1  0  0  0  0
  2 24  1  0  0  0  0
  7 25  1  0  0  0  0
  7 26  1  0  0  0  0
  8 27  1  0  0  0  0
  8 28  1  0  0  0  0
  8 29  1  0  0  0  0
 10 30  1  0  0  0  0
 10 31  1  0  0  0  0
 15 32  1  0  0  0  0
 15 33  1  0  0  0  0
 16 34  1  0  0  0  0
 16 35  1  0  0  0  0
 16 36  1  0  0  0  0
 18 37  1  0  0  0  0
 18 38  1  0  0  0  0
 19 39  1  0  0  0  0
 19 40  1  0  0  0  0
 19 41  1  0  0  0  0
M  END
