 xtb: 6.7.1 (edcfbbe)
          04092507313D

 38 37  0     0  0            999 V2000
    5.0023   -1.0649   -1.1269 C   0  0  0  0  0  0  0  0  0  0  0  0
    4.1965   -2.3287   -1.3812 C   0  0  0  0  0  0  0  0  0  0  0  0
    2.8581   -1.9919   -1.7990 O   0  0  0  0  0  0  0  0  0  0  0  0
    1.9269   -1.8499   -0.8852 C   0  0  0  0  0  0  0  0  0  0  0  0
    2.0818   -2.0319    0.3046 O   0  0  0  0  0  0  0  0  0  0  0  0
    0.6164   -1.3743   -1.4860 C   0  0  0  0  0  0  0  0  0  0  0  0
    0.5263    0.1407   -1.2566 C   0  0  0  0  0  0  0  0  0  0  0  0
    1.1833    0.6867   -1.9343 H   0  0  0  0  0  0  0  0  0  0  0  0
    0.8661    0.4713    0.1804 C   0  0  0  0  0  0  0  0  0  0  0  0
    0.0814    0.2467    1.0812 O   0  0  0  0  0  0  0  0  0  0  0  0
    2.0503    0.9979    0.3181 O   0  0  0  0  0  0  0  0  0  0  0  0
    2.4790    1.3650    1.6501 C   0  0  0  0  0  0  0  0  0  0  0  0
    1.8655    2.6873    2.0782 C   0  0  0  0  0  0  0  0  0  0  0  0
   -1.1622    0.7570   -1.5527 S   0  0  0  0  0  0  0  0  0  0  0  0
   -2.2126    0.5318    0.2991 P   0  0  0  0  0  0  0  0  0  0  0  0
   -2.1382    1.8444    1.7533 S   0  0  0  0  0  0  0  0  0  0  0  0
   -3.6712    0.7324   -0.3261 O   0  0  0  0  0  0  0  0  0  0  0  0
   -4.2695   -0.1206   -1.3178 C   0  0  0  0  0  0  0  0  0  0  0  0
   -2.2618   -1.0362    0.6504 O   0  0  0  0  0  0  0  0  0  0  0  0
   -1.7682   -1.6204    1.8550 C   0  0  0  0  0  0  0  0  0  0  0  0
    4.5453   -0.4877   -0.3259 H   0  0  0  0  0  0  0  0  0  0  0  0
    6.0124   -1.3344   -0.8373 H   0  0  0  0  0  0  0  0  0  0  0  0
    5.0365   -0.4547   -2.0248 H   0  0  0  0  0  0  0  0  0  0  0  0
    4.1365   -2.9425   -0.4782 H   0  0  0  0  0  0  0  0  0  0  0  0
    4.6086   -2.9060   -2.2087 H   0  0  0  0  0  0  0  0  0  0  0  0
   -0.2061   -1.8714   -0.9694 H   0  0  0  0  0  0  0  0  0  0  0  0
    0.5803   -1.5889   -2.5518 H   0  0  0  0  0  0  0  0  0  0  0  0
    2.1981    0.5605    2.3348 H   0  0  0  0  0  0  0  0  0  0  0  0
    3.5635    1.4370    1.5683 H   0  0  0  0  0  0  0  0  0  0  0  0
    2.2591    2.9627    3.0508 H   0  0  0  0  0  0  0  0  0  0  0  0
    2.1085    3.4652    1.3595 H   0  0  0  0  0  0  0  0  0  0  0  0
    0.7823    2.6022    2.1536 H   0  0  0  0  0  0  0  0  0  0  0  0
   -5.3244    0.1426   -1.3172 H   0  0  0  0  0  0  0  0  0  0  0  0
   -4.1354   -1.1660   -1.0460 H   0  0  0  0  0  0  0  0  0  0  0  0
   -3.8261    0.0785   -2.2923 H   0  0  0  0  0  0  0  0  0  0  0  0
   -2.4613   -2.4203    2.1063 H   0  0  0  0  0  0  0  0  0  0  0  0
   -1.7371   -0.8760    2.6515 H   0  0  0  0  0  0  0  0  0  0  0  0
   -0.7647   -2.0136    1.6914 H   0  0  0  0  0  0  0  0  0  0  0  0
  1  2  1  0  0  0  0
  2  3  1  0  0  0  0
  3  4  4  0  0  0  0
  4  5  2  0  0  0  0
  4  6  1  0  0  0  0
  6  7  1  0  0  0  0
  7  8  1  0  0  0  0
  7  9  1  0  0  0  0
  9 10  2  0  0  0  0
  9 11  4  0  0  0  0
 11 12  1  0  0  0  0
 12 13  1  0  0  0  0
  7 14  1  0  0  0  0
 14 15  1  0  0  0  0
 15 16  2  0  0  0  0
 15 17  1  0  0  0  0
 17 18  1  0  0  0  0
 15 19  1  0  0  0  0
 19 20  1  0  0  0  0
  1 21  1  0  0  0  0
  1 22  1  0  0  0  0
  1 23  1  0  0  0  0
  2 24  1  0  0  0  0
  2 25  1  0  0  0  0
  6 26  1  0  0  0  0
  6 27  1  0  0  0  0
 12 28  1  0  0  0  0
 12 29  1  0  0  0  0
 13 30  1  0  0  0  0
 13 31  1  0  0  0  0
 13 32  1  0  0  0  0
 18 33  1  0  0  0  0
 18 34  1  0  0  0  0
 18 35  1  0  0  0  0
 20 36  1  0  0  0  0
 20 37  1  0  0  0  0
 20 38  1  0  0  0  0
M  END
