 xtb: 6.7.1 (edcfbbe)
          04032520193D

 20 20  0     0  0            999 V2000
    0.8483    1.3906   -0.5815 C   0  0  0  0  0  0  0  0  0  0  0  0
    1.5965    0.1597   -0.0520 C   0  0  0  0  0  0  0  0  0  0  0  0
    2.5541    0.0988   -0.5867 H   0  0  0  0  0  0  0  0  0  0  0  0
    0.7667   -1.1151   -0.3418 C   0  0  0  0  0  0  0  0  0  0  0  0
    1.1969   -1.9642    0.2102 H   0  0  0  0  0  0  0  0  0  0  0  0
   -0.6728   -0.9143    0.1653 C   0  0  0  0  0  0  0  0  0  0  0  0
   -1.2892   -1.7649   -0.1416 H   0  0  0  0  0  0  0  0  0  0  0  0
   -1.2615    0.3680   -0.4578 C   0  0  0  0  0  0  0  0  0  0  0  0
   -1.2767    0.2741   -1.5548 H   0  0  0  0  0  0  0  0  0  0  0  0
   -0.4668    1.4792   -0.0790 O   0  0  0  0  0  0  0  0  0  0  0  0
   -2.5569    0.5937   -0.0481 O   0  0  0  0  0  0  0  0  0  0  0  0
   -0.7395   -0.8480    1.5655 O   0  0  0  0  0  0  0  0  0  0  0  0
    0.7022   -1.3866   -1.7197 O   0  0  0  0  0  0  0  0  0  0  0  0
    1.8091    0.3310    1.3323 O   0  0  0  0  0  0  0  0  0  0  0  0
    0.8272    1.3478   -1.6782 H   0  0  0  0  0  0  0  0  0  0  0  0
    1.3460    2.2999   -0.2448 H   0  0  0  0  0  0  0  0  0  0  0  0
   -2.5917    0.5308    0.9223 H   0  0  0  0  0  0  0  0  0  0  0  0
   -0.1273   -0.1491    1.8633 H   0  0  0  0  0  0  0  0  0  0  0  0
    1.5421   -1.7604   -2.0244 H   0  0  0  0  0  0  0  0  0  0  0  0
    2.4643   -0.3054    1.6520 H   0  0  0  0  0  0  0  0  0  0  0  0
  1  2  1  0  0  0  0
  2  3  1  0  0  0  0
  2  4  1  0  0  0  0
  4  5  1  0  0  0  0
  4  6  1  0  0  0  0
  6  7  1  0  0  0  0
  6  8  1  0  0  0  0
  8  9  1  0  0  0  0
  1 10  1  0  0  0  0
  8 10  1  0  0  0  0
  8 11  1  0  0  0  0
  6 12  1  0  0  0  0
  4 13  1  0  0  0  0
  2 14  1  0  0  0  0
  1 15  1  0  0  0  0
  1 16  1  0  0  0  0
 11 17  1  0  0  0  0
 12 18  1  0  0  0  0
 13 19  1  0  0  0  0
 14 20  1  0  0  0  0
M  END
