38
 xtb: 6.7.1 (edcfbbe)
C            5.29608326200359       -2.15348359294128       -2.18615755292967
C            4.96987729775387       -1.33146706160427       -0.96193815458672
O            3.65853404057199       -1.70275001957286       -0.41790788736184
C            2.58648267852771       -1.14029038729190       -0.98949431604594
O            2.63229504652361       -0.33601055749741       -1.90292127050446
C            1.29972524456908       -1.66690170180083       -0.39569164059810
C            0.30270823642544       -0.52841798439500       -0.13321988362023
H            0.29618954753201        0.15139707473632       -0.99414834926726
C            0.68727019381611        0.29409514748550        1.09218837726023
O           -0.05045529276407        0.59147082613762        2.00866025317235
O            1.96888763170216        0.66056809930722        0.99195351207644
C            2.49948655105168        1.54344237281054        2.03905479006221
C            2.14146764008220        2.98005980998002        1.74412705711862
S           -1.38204659036769       -1.25150421146647        0.01262237657476
P           -2.61068367053608        0.47505204077938       -0.16408352050568
S           -1.86731928436797        1.93859148454415       -1.20079412214923
O           -3.97982467556558       -0.20633437137273       -0.67545679771431
C           -4.11625990026595       -0.63063556269645       -2.06054085212448
O           -3.05568936451081        0.95976218726898        1.29788625041899
C           -3.55647401680531        0.01858810066166        2.29323098170614
H            4.59162133069730       -1.95801030221682       -2.99887260400092
H            6.30055339049659       -1.89013043265050       -2.53214655696162
H            5.28347336131224       -3.22149886856857       -1.95098643821326
H            4.96862916791211       -0.25850751445444       -1.16857980173703
H            5.65816250368936       -1.54092068635693       -0.14148970534060
H            1.49661042851013       -2.24177498431334        0.51112516886210
H            0.88211895714089       -2.34543312456776       -1.14929658443931
H            2.11582455387605        1.20525351079416        3.00430018756261
H            3.57677145161153        1.37538351699478        1.99584708649284
H            2.52889668994779        3.28256787762368        0.76716619095465
H            1.05889843812885        3.13262871080911        1.76284097930107
H            2.59267923930369        3.62162115982902        2.50746714691819
H           -3.34595343674409       -1.36365554926359       -2.31528061646570
H           -4.05190000875640        0.23655646353427       -2.72235011199962
H           -5.10356924788058       -1.08677438359566       -2.13047731862161
H           -2.78304045107783       -0.71398571041166        2.53795214837587
H           -4.45800918533935       -0.47829002745227        1.92752632789191
H           -3.78884560490170        0.62283121422268        3.16989869782854
