 xtb: 6.7.1 (edcfbbe)
          04092505203D

 41 40  0     0  0            999 V2000
    1.4896   -3.5776   -0.3950 C   0  0  0  0  0  0  0  0  0  0  0  0
    2.5186   -2.5838   -0.8940 C   0  0  0  0  0  0  0  0  0  0  0  0
    1.8753   -1.3199   -1.2133 O   0  0  0  0  0  0  0  0  0  0  0  0
    2.1484    0.0055   -0.4038 P   0  0  0  0  0  0  0  0  0  0  0  0
    1.1697    1.5303   -1.1436 S   0  0  0  0  0  0  0  0  0  0  0  0
    3.7353    0.1029   -0.4829 O   0  0  0  0  0  0  0  0  0  0  0  0
    4.4628    1.3172   -0.2290 C   0  0  0  0  0  0  0  0  0  0  0  0
    4.3322    1.7828    1.2068 C   0  0  0  0  0  0  0  0  0  0  0  0
    1.7933   -0.4729    1.6400 S   0  0  0  0  0  0  0  0  0  0  0  0
    0.0439   -0.0486    1.7071 C   0  0  0  0  0  0  0  0  0  0  0  0
   -0.9612   -1.0892    0.5843 S   0  0  0  0  0  0  0  0  0  0  0  0
   -2.4458    0.3085   -0.0087 P   0  0  0  0  0  0  0  0  0  0  0  0
   -2.1236    2.1882    0.4653 S   0  0  0  0  0  0  0  0  0  0  0  0
   -3.8124   -0.2970    0.5155 O   0  0  0  0  0  0  0  0  0  0  0  0
   -4.4005    0.0855    1.7697 C   0  0  0  0  0  0  0  0  0  0  0  0
   -3.5694   -0.3672    2.9539 C   0  0  0  0  0  0  0  0  0  0  0  0
   -2.7414   -0.0176   -1.5285 O   0  0  0  0  0  0  0  0  0  0  0  0
   -1.9207    0.3886   -2.6368 C   0  0  0  0  0  0  0  0  0  0  0  0
   -1.0761   -0.7677   -3.1356 C   0  0  0  0  0  0  0  0  0  0  0  0
    1.0461   -3.2350    0.5371 H   0  0  0  0  0  0  0  0  0  0  0  0
    0.6972   -3.6976   -1.1283 H   0  0  0  0  0  0  0  0  0  0  0  0
    1.9744   -4.5342   -0.2298 H   0  0  0  0  0  0  0  0  0  0  0  0
    2.9720   -2.9136   -1.8298 H   0  0  0  0  0  0  0  0  0  0  0  0
    3.2980   -2.4094   -0.1495 H   0  0  0  0  0  0  0  0  0  0  0  0
    5.4930    1.0560   -0.4757 H   0  0  0  0  0  0  0  0  0  0  0  0
    4.0997    2.0865   -0.9176 H   0  0  0  0  0  0  0  0  0  0  0  0
    4.5778    0.9753    1.8919 H   0  0  0  0  0  0  0  0  0  0  0  0
    5.0066    2.6165    1.3741 H   0  0  0  0  0  0  0  0  0  0  0  0
    3.3128    2.1129    1.4016 H   0  0  0  0  0  0  0  0  0  0  0  0
   -0.1018    0.9973    1.4217 H   0  0  0  0  0  0  0  0  0  0  0  0
   -0.2610   -0.2266    2.7355 H   0  0  0  0  0  0  0  0  0  0  0  0
   -4.5229    1.1733    1.7799 H   0  0  0  0  0  0  0  0  0  0  0  0
   -5.3784   -0.3976    1.7545 H   0  0  0  0  0  0  0  0  0  0  0  0
   -4.1237   -0.1914    3.8703 H   0  0  0  0  0  0  0  0  0  0  0  0
   -3.3372   -1.4260    2.8692 H   0  0  0  0  0  0  0  0  0  0  0  0
   -2.6423    0.2040    2.9891 H   0  0  0  0  0  0  0  0  0  0  0  0
   -2.6297    0.7143   -3.4009 H   0  0  0  0  0  0  0  0  0  0  0  0
   -1.2964    1.2391   -2.3426 H   0  0  0  0  0  0  0  0  0  0  0  0
   -1.7075   -1.6314   -3.3238 H   0  0  0  0  0  0  0  0  0  0  0  0
   -0.5804   -0.4713   -4.0546 H   0  0  0  0  0  0  0  0  0  0  0  0
   -0.3173   -1.0339   -2.4026 H   0  0  0  0  0  0  0  0  0  0  0  0
  1  2  1  0  0  0  0
  2  3  1  0  0  0  0
  3  4  2  0  0  0  0
  4  5  2  0  0  0  0
  4  6  2  0  0  0  0
  6  7  1  0  0  0  0
  7  8  1  0  0  0  0
  4  9  1  0  0  0  0
  9 10  1  0  0  0  0
 10 11  1  0  0  0  0
 11 12  1  0  0  0  0
 12 13  2  0  0  0  0
 12 14  2  0  0  0  0
 14 15  1  0  0  0  0
 15 16  1  0  0  0  0
 12 17  2  0  0  0  0
 17 18  1  0  0  0  0
 18 19  1  0  0  0  0
  1 20  1  0  0  0  0
  1 21  1  0  0  0  0
  1 22  1  0  0  0  0
  2 23  1  0  0  0  0
  2 24  1  0  0  0  0
  7 25  1  0  0  0  0
  7 26  1  0  0  0  0
  8 27  1  0  0  0  0
  8 28  1  0  0  0  0
  8 29  1  0  0  0  0
 10 30  1  0  0  0  0
 10 31  1  0  0  0  0
 15 32  1  0  0  0  0
 15 33  1  0  0  0  0
 16 34  1  0  0  0  0
 16 35  1  0  0  0  0
 16 36  1  0  0  0  0
 18 37  1  0  0  0  0
 18 38  1  0  0  0  0
 19 39  1  0  0  0  0
 19 40  1  0  0  0  0
 19 41  1  0  0  0  0
M  END
