 xtb: 6.7.1 (edcfbbe)
          04032519423D

 20 20  0     0  0            999 V2000
    0.6260    1.6952   -0.0753 C   0  0  0  0  0  0  0  0  0  0  0  0
    1.3919    0.3840   -0.2657 C   0  0  0  0  0  0  0  0  0  0  0  0
    1.5934    0.2242   -1.3371 H   0  0  0  0  0  0  0  0  0  0  0  0
    0.5268   -0.7845    0.2300 C   0  0  0  0  0  0  0  0  0  0  0  0
    0.3252   -0.6564    1.3005 H   0  0  0  0  0  0  0  0  0  0  0  0
   -0.8088   -0.7364   -0.5311 C   0  0  0  0  0  0  0  0  0  0  0  0
   -0.5997   -0.7758   -1.6099 H   0  0  0  0  0  0  0  0  0  0  0  0
   -1.4719    0.6226   -0.2468 C   0  0  0  0  0  0  0  0  0  0  0  0
   -2.3872    0.7038   -0.8487 H   0  0  0  0  0  0  0  0  0  0  0  0
   -0.6457    1.6695   -0.7041 O   0  0  0  0  0  0  0  0  0  0  0  0
   -1.7398    0.7194    1.1113 O   0  0  0  0  0  0  0  0  0  0  0  0
   -1.7000   -1.7543   -0.1573 O   0  0  0  0  0  0  0  0  0  0  0  0
    1.2388   -1.9802   -0.0113 O   0  0  0  0  0  0  0  0  0  0  0  0
    2.5976    0.4787    0.4476 O   0  0  0  0  0  0  0  0  0  0  0  0
    1.1665    2.5229   -0.5319 H   0  0  0  0  0  0  0  0  0  0  0  0
    0.5198    1.8766    1.0006 H   0  0  0  0  0  0  0  0  0  0  0  0
   -2.3406    1.4600    1.2841 H   0  0  0  0  0  0  0  0  0  0  0  0
   -1.3963   -2.5949   -0.5308 H   0  0  0  0  0  0  0  0  0  0  0  0
    0.8928   -2.6833    0.5550 H   0  0  0  0  0  0  0  0  0  0  0  0
    3.0352   -0.3863    0.4158 H   0  0  0  0  0  0  0  0  0  0  0  0
  1  2  1  0  0  0  0
  2  3  1  0  0  0  0
  2  4  1  0  0  0  0
  4  5  1  0  0  0  0
  4  6  1  0  0  0  0
  6  7  1  0  0  0  0
  6  8  1  0  0  0  0
  8  9  1  0  0  0  0
  1 10  1  0  0  0  0
  8 10  1  0  0  0  0
  8 11  1  0  0  0  0
  6 12  1  0  0  0  0
  4 13  1  0  0  0  0
  2 14  1  0  0  0  0
  1 15  1  0  0  0  0
  1 16  1  0  0  0  0
 11 17  1  0  0  0  0
 12 18  1  0  0  0  0
 13 19  1  0  0  0  0
 14 20  1  0  0  0  0
M  END
