41
 xtb: 6.7.1 (edcfbbe)
C            5.46671013807722       -2.23576823588192       -0.81991809116632
C            4.44112110439748       -1.24219280228760       -1.29823472613335
O            3.55137712505909       -0.95492459017383       -0.16177477317134
P            2.55742966767118        0.31000442849477       -0.17343951283616
S            3.28237906934939        2.06465170397753       -0.59193702873487
O            1.97385112129106        0.27021982561281        1.31642390493708
C            1.36079703129644       -0.94237774002075        1.88763583817440
C            0.48887294499296       -0.49980807025338        3.03341495924381
S            1.06887948359023       -0.40681133432695       -1.51303978581110
C            0.06049818248976        1.10836785851355       -1.74233163279791
S           -0.97428898114643        1.65239076604691       -0.32464625372388
P           -2.47864414579324        0.15600944349696       -0.33496660864589
S           -3.23997068590280       -0.26828684009432       -2.07507067630588
O           -3.57251690289549        0.77214450983330        0.66713623855248
C           -3.39919058684357        0.81872319750312        2.13437572054130
C           -3.08797662382746        2.22323532171660        2.58392413654617
O           -1.74807636444067       -1.04540188694035        0.44358798317730
C           -2.20961800741982       -2.43826289774763        0.34819441395346
C           -3.45656451804093       -2.67029371757219        1.16520919275856
H            4.98855212767014       -3.15543594681141       -0.47116538744914
H            6.13038892454044       -2.48652361172249       -1.65307409367086
H            6.07013882248591       -1.81514661272033       -0.01078670582286
H            3.83179230317390       -1.64701186655419       -2.11221257634225
H            4.90300337204863       -0.30398611434900       -1.62140005523832
H            0.77881350021556       -1.44299987993999        1.10771193701862
H            2.17200641551986       -1.59899148617642        2.21442258039139
H           -0.27431375859312        0.20492470978629        2.69067054591103
H           -0.01301945193898       -1.37516306859710        3.45760883773181
H            1.08361987901254       -0.02576472314863        3.81942879296089
H           -0.58478282226908        0.91276660791141       -2.60408557563498
H            0.71953885930586        1.95247340029346       -1.96783902747470
H           -4.35788011645009        0.47383197766652        2.52824847976981
H           -2.62209012785499        0.10946078645646        2.42869117738898
H           -3.06746020774653        2.23984699451927        3.67869704155872
H           -2.11104536140992        2.55956533599211        2.22467956529742
H           -3.85513052551610        2.92434567996672        2.24384489381358
H           -2.35838745321007       -2.67810503472905       -0.70902138441715
H           -1.36275647706535       -3.01361629684542        0.72885968152060
H           -3.29389948399390       -2.40654411520931        2.21400640524980
H           -4.30385631511339       -2.09566960734841        0.77803373384175
H           -3.71540620591010       -3.73292233789882        1.11306648420924
