 xtb: 6.7.1 (edcfbbe)
          04092505203D

 41 40  0     0  0            999 V2000
    4.5882   -0.2160   -1.8787 C   0  0  0  0  0  0  0  0  0  0  0  0
    4.4589    0.8864   -0.8475 C   0  0  0  0  0  0  0  0  0  0  0  0
    3.5893    0.5206    0.2366 O   0  0  0  0  0  0  0  0  0  0  0  0
    2.0285    0.2997    0.0453 P   0  0  0  0  0  0  0  0  0  0  0  0
    1.1710    1.5708   -1.1774 S   0  0  0  0  0  0  0  0  0  0  0  0
    1.4668    0.4480    1.5125 O   0  0  0  0  0  0  0  0  0  0  0  0
    1.6388   -0.4880    2.6103 C   0  0  0  0  0  0  0  0  0  0  0  0
    3.0866   -0.8362    2.8745 C   0  0  0  0  0  0  0  0  0  0  0  0
    1.8491   -1.7586   -0.4583 S   0  0  0  0  0  0  0  0  0  0  0  0
    0.1176   -1.7413   -0.9660 C   0  0  0  0  0  0  0  0  0  0  0  0
   -1.0188   -1.4473    0.4260 S   0  0  0  0  0  0  0  0  0  0  0  0
   -2.1306    0.2142   -0.3103 P   0  0  0  0  0  0  0  0  0  0  0  0
   -2.1266    0.4585   -2.2495 S   0  0  0  0  0  0  0  0  0  0  0  0
   -1.6192    1.5088    0.4271 O   0  0  0  0  0  0  0  0  0  0  0  0
   -1.5801    1.6444    1.8676 C   0  0  0  0  0  0  0  0  0  0  0  0
   -2.7429    2.4849    2.3525 C   0  0  0  0  0  0  0  0  0  0  0  0
   -3.5335   -0.0035    0.4092 O   0  0  0  0  0  0  0  0  0  0  0  0
   -4.3160   -1.2123    0.3834 C   0  0  0  0  0  0  0  0  0  0  0  0
   -4.6370   -1.6802   -1.0202 C   0  0  0  0  0  0  0  0  0  0  0  0
    5.3543    0.0548   -2.5982 H   0  0  0  0  0  0  0  0  0  0  0  0
    4.8567   -1.1545   -1.4004 H   0  0  0  0  0  0  0  0  0  0  0  0
    3.6437   -0.3455   -2.4052 H   0  0  0  0  0  0  0  0  0  0  0  0
    4.0709    1.8000   -1.3092 H   0  0  0  0  0  0  0  0  0  0  0  0
    5.4110    1.0934   -0.3570 H   0  0  0  0  0  0  0  0  0  0  0  0
    1.1918    0.0400    3.4540 H   0  0  0  0  0  0  0  0  0  0  0  0
    1.0547   -1.3852    2.3852 H   0  0  0  0  0  0  0  0  0  0  0  0
    3.1413   -1.4473    3.7702 H   0  0  0  0  0  0  0  0  0  0  0  0
    3.5006   -1.3955    2.0384 H   0  0  0  0  0  0  0  0  0  0  0  0
    3.6726    0.0676    3.0182 H   0  0  0  0  0  0  0  0  0  0  0  0
   -0.0890   -2.7289   -1.3706 H   0  0  0  0  0  0  0  0  0  0  0  0
   -0.0525   -0.9630   -1.7161 H   0  0  0  0  0  0  0  0  0  0  0  0
   -1.5928    0.6477    2.3188 H   0  0  0  0  0  0  0  0  0  0  0  0
   -0.6213    2.1267    2.0716 H   0  0  0  0  0  0  0  0  0  0  0  0
   -2.6614    2.6183    3.4266 H   0  0  0  0  0  0  0  0  0  0  0  0
   -2.7253    3.4563    1.8658 H   0  0  0  0  0  0  0  0  0  0  0  0
   -3.6837    1.9938    2.1182 H   0  0  0  0  0  0  0  0  0  0  0  0
   -3.7705   -1.9838    0.9338 H   0  0  0  0  0  0  0  0  0  0  0  0
   -5.2221   -0.9396    0.9274 H   0  0  0  0  0  0  0  0  0  0  0  0
   -3.7251   -1.9638   -1.5431 H   0  0  0  0  0  0  0  0  0  0  0  0
   -5.2999   -2.5379   -0.9701 H   0  0  0  0  0  0  0  0  0  0  0  0
   -5.1174   -0.8847   -1.5850 H   0  0  0  0  0  0  0  0  0  0  0  0
  1  2  1  0  0  0  0
  2  3  1  0  0  0  0
  3  4  2  0  0  0  0
  4  5  2  0  0  0  0
  4  6  2  0  0  0  0
  6  7  1  0  0  0  0
  7  8  1  0  0  0  0
  4  9  1  0  0  0  0
  9 10  1  0  0  0  0
 10 11  1  0  0  0  0
 11 12  1  0  0  0  0
 12 13  2  0  0  0  0
 12 14  2  0  0  0  0
 14 15  1  0  0  0  0
 15 16  1  0  0  0  0
 12 17  2  0  0  0  0
 17 18  1  0  0  0  0
 18 19  1  0  0  0  0
  1 20  1  0  0  0  0
  1 21  1  0  0  0  0
  1 22  1  0  0  0  0
  2 23  1  0  0  0  0
  2 24  1  0  0  0  0
  7 25  1  0  0  0  0
  7 26  1  0  0  0  0
  8 27  1  0  0  0  0
  8 28  1  0  0  0  0
  8 29  1  0  0  0  0
 10 30  1  0  0  0  0
 10 31  1  0  0  0  0
 15 32  1  0  0  0  0
 15 33  1  0  0  0  0
 16 34  1  0  0  0  0
 16 35  1  0  0  0  0
 16 36  1  0  0  0  0
 18 37  1  0  0  0  0
 18 38  1  0  0  0  0
 19 39  1  0  0  0  0
 19 40  1  0  0  0  0
 19 41  1  0  0  0  0
M  END
