 xtb: 6.7.1 (edcfbbe)
          04092505213D

 41 40  0     0  0            999 V2000
    3.3995   -2.7620   -1.3966 C   0  0  0  0  0  0  0  0  0  0  0  0
    4.4357   -1.8370   -0.7969 C   0  0  0  0  0  0  0  0  0  0  0  0
    4.0221   -0.4464   -0.8200 O   0  0  0  0  0  0  0  0  0  0  0  0
    2.7446    0.1436   -0.1218 P   0  0  0  0  0  0  0  0  0  0  0  0
    2.9004    2.0693    0.2007 S   0  0  0  0  0  0  0  0  0  0  0  0
    2.6253   -0.7590    1.1831 O   0  0  0  0  0  0  0  0  0  0  0  0
    1.7271   -0.4511    2.2659 C   0  0  0  0  0  0  0  0  0  0  0  0
    2.2980   -1.0565    3.5323 C   0  0  0  0  0  0  0  0  0  0  0  0
    1.0993   -0.4055   -1.3802 S   0  0  0  0  0  0  0  0  0  0  0  0
    0.0656    1.0560   -1.1360 C   0  0  0  0  0  0  0  0  0  0  0  0
   -0.9035    1.0028    0.3905 S   0  0  0  0  0  0  0  0  0  0  0  0
   -2.8015    0.3931   -0.3998 P   0  0  0  0  0  0  0  0  0  0  0  0
   -2.9074    0.2336   -2.3482 S   0  0  0  0  0  0  0  0  0  0  0  0
   -3.8210    1.4599    0.1484 O   0  0  0  0  0  0  0  0  0  0  0  0
   -3.7821    2.1161    1.4389 C   0  0  0  0  0  0  0  0  0  0  0  0
   -3.6624    1.1417    2.5898 C   0  0  0  0  0  0  0  0  0  0  0  0
   -3.2338   -0.9197    0.3881 O   0  0  0  0  0  0  0  0  0  0  0  0
   -2.8735   -2.2447   -0.0337 C   0  0  0  0  0  0  0  0  0  0  0  0
   -1.4776   -2.6203    0.4227 C   0  0  0  0  0  0  0  0  0  0  0  0
    3.8028   -3.7691   -1.4357 H   0  0  0  0  0  0  0  0  0  0  0  0
    2.4982   -2.7651   -0.7870 H   0  0  0  0  0  0  0  0  0  0  0  0
    3.1384   -2.4418   -2.4023 H   0  0  0  0  0  0  0  0  0  0  0  0
    5.3564   -1.8285   -1.3822 H   0  0  0  0  0  0  0  0  0  0  0  0
    4.6528   -2.1084    0.2375 H   0  0  0  0  0  0  0  0  0  0  0  0
    1.6290    0.6365    2.3481 H   0  0  0  0  0  0  0  0  0  0  0  0
    0.7497   -0.8769    2.0258 H   0  0  0  0  0  0  0  0  0  0  0  0
    3.2671   -0.6173    3.7525 H   0  0  0  0  0  0  0  0  0  0  0  0
    1.6211   -0.8576    4.3565 H   0  0  0  0  0  0  0  0  0  0  0  0
    2.4151   -2.1295    3.4124 H   0  0  0  0  0  0  0  0  0  0  0  0
   -0.6170    1.1056   -1.9868 H   0  0  0  0  0  0  0  0  0  0  0  0
    0.7087    1.9349   -1.0792 H   0  0  0  0  0  0  0  0  0  0  0  0
   -2.9458    2.8200    1.4363 H   0  0  0  0  0  0  0  0  0  0  0  0
   -4.7256    2.6633    1.4666 H   0  0  0  0  0  0  0  0  0  0  0  0
   -4.4578    0.4029    2.5427 H   0  0  0  0  0  0  0  0  0  0  0  0
   -2.7011    0.6327    2.5472 H   0  0  0  0  0  0  0  0  0  0  0  0
   -3.7311    1.6882    3.5253 H   0  0  0  0  0  0  0  0  0  0  0  0
   -3.6283   -2.8833    0.4281 H   0  0  0  0  0  0  0  0  0  0  0  0
   -2.9580   -2.3035   -1.1239 H   0  0  0  0  0  0  0  0  0  0  0  0
   -0.7356   -2.0194   -0.0999 H   0  0  0  0  0  0  0  0  0  0  0  0
   -1.3812   -2.4643    1.4941 H   0  0  0  0  0  0  0  0  0  0  0  0
   -1.2983   -3.6661    0.1950 H   0  0  0  0  0  0  0  0  0  0  0  0
  1  2  1  0  0  0  0
  2  3  1  0  0  0  0
  3  4  2  0  0  0  0
  4  5  2  0  0  0  0
  4  6  2  0  0  0  0
  6  7  1  0  0  0  0
  7  8  1  0  0  0  0
  4  9  1  0  0  0  0
  9 10  1  0  0  0  0
 10 11  1  0  0  0  0
 11 12  1  0  0  0  0
 12 13  2  0  0  0  0
 12 14  2  0  0  0  0
 14 15  1  0  0  0  0
 15 16  1  0  0  0  0
 12 17  2  0  0  0  0
 17 18  1  0  0  0  0
 18 19  1  0  0  0  0
  1 20  1  0  0  0  0
  1 21  1  0  0  0  0
  1 22  1  0  0  0  0
  2 23  1  0  0  0  0
  2 24  1  0  0  0  0
  7 25  1  0  0  0  0
  7 26  1  0  0  0  0
  8 27  1  0  0  0  0
  8 28  1  0  0  0  0
  8 29  1  0  0  0  0
 10 30  1  0  0  0  0
 10 31  1  0  0  0  0
 15 32  1  0  0  0  0
 15 33  1  0  0  0  0
 16 34  1  0  0  0  0
 16 35  1  0  0  0  0
 16 36  1  0  0  0  0
 18 37  1  0  0  0  0
 18 38  1  0  0  0  0
 19 39  1  0  0  0  0
 19 40  1  0  0  0  0
 19 41  1  0  0  0  0
M  END
