41
 xtb: 6.7.1 (edcfbbe)
C            5.65047527394700       -1.73046629250849       -1.59326552511687
C            4.49228921601138       -0.76827573001453       -1.62343926860206
O            3.73988625628205       -0.95404196769852       -0.37238976813076
P            2.70625117972321        0.15706017625172        0.15842448240321
S            3.32493317754899        1.99291352266755        0.33397150156451
O            2.28317249623938       -0.43972348699857        1.58163010233202
C            1.86187544958914       -1.84436978290965        1.75295048619860
C            2.94921147664402       -2.60996669056661        2.46294874047132
S            1.09460664509860       -0.14413066154341       -1.19876694631116
C            0.01455913035828        1.26300807625268       -0.72636537323743
S           -1.03894655232818        1.00218354472135        0.75157852915814
P           -2.86364210228175        0.24849713791511       -0.07573710453437
S           -2.85161528904407        0.00861254262873       -2.00702012563429
O           -3.96861020400648        1.23761561822660        0.55206648301932
C           -4.05633275922668        2.62109106766176        0.06818629325871
C           -4.91604286947396        3.38227815379758        1.04344855601463
O           -3.24954565904166       -1.01433038068988        0.83482587926013
C           -2.94701803731296       -2.39675514948505        0.43719655210347
C           -1.51719577852320       -2.76609614851266        0.73971085766203
H            5.30065639250664       -2.76479223541660       -1.52788727726921
H            6.22601106875261       -1.61765243564592       -2.51725533553240
H            6.30997425237190       -1.51973866234072       -0.74682960439890
H            3.81433819281619       -0.97267531262808       -2.45755754877599
H            4.82979093486023        0.27158647514381       -1.67428470083904
H            0.94674382994475       -1.78963007304287        2.34590805210813
H            1.62400914535287       -2.27849125075516        0.77719081215605
H            2.60185323021349       -3.63370569015561        2.63879464745861
H            3.86156561897584       -2.65256365395165        1.86172432816846
H            3.17908144927395       -2.15452079163732        3.43033586518159
H           -0.62211521509103        1.46774863129730       -1.59070701907423
H            0.63976816980916        2.13717393658239       -0.51946035831981
H           -3.04617099490238        3.04213130087110        0.01073976043418
H           -4.49439933636529        2.59819507028204       -0.93407118826634
H           -5.02682958295429        4.41115286057663        0.68800776905870
H           -5.91097685222045        2.93522675787354        1.11969818789416
H           -4.45652038213062        3.40593834302487        2.03538421974878
H           -3.65052982756883       -2.98903579264306        1.02539493495520
H           -3.18589287532278       -2.51010901375283       -0.62432436731749
H           -0.81561381980452       -2.19487255974583        0.12515928307331
H           -1.28517218888421       -2.59884544545041        1.79515276727493
H           -1.37818493723277       -3.82967893484394        0.51851055160448
