 xtb: 6.7.1 (edcfbbe)
          04092507313D

 38 37  0     0  0            999 V2000
    2.2206   -3.2773    0.7966 C   0  0  0  0  0  0  0  0  0  0  0  0
    3.2576   -2.3057    0.2573 C   0  0  0  0  0  0  0  0  0  0  0  0
    2.7541   -1.6135   -0.9016 O   0  0  0  0  0  0  0  0  0  0  0  0
    2.1141   -0.4787   -0.7389 C   0  0  0  0  0  0  0  0  0  0  0  0
    1.9160    0.0702    0.3261 O   0  0  0  0  0  0  0  0  0  0  0  0
    1.6598    0.1213   -2.0529 C   0  0  0  0  0  0  0  0  0  0  0  0
    0.3334    0.8475   -1.8470 C   0  0  0  0  0  0  0  0  0  0  0  0
    0.1153    1.4815   -2.7101 H   0  0  0  0  0  0  0  0  0  0  0  0
    0.3424    1.7222   -0.6074 C   0  0  0  0  0  0  0  0  0  0  0  0
   -0.5169    1.6374    0.2559 O   0  0  0  0  0  0  0  0  0  0  0  0
    1.2614    2.6422   -0.6621 O   0  0  0  0  0  0  0  0  0  0  0  0
    1.3802    3.5781    0.4334 C   0  0  0  0  0  0  0  0  0  0  0  0
    2.3255    3.0495    1.4980 C   0  0  0  0  0  0  0  0  0  0  0  0
   -1.0708   -0.3184   -1.7318 S   0  0  0  0  0  0  0  0  0  0  0  0
   -1.7362   -0.4063    0.2846 P   0  0  0  0  0  0  0  0  0  0  0  0
   -0.6350   -0.8332    1.8600 S   0  0  0  0  0  0  0  0  0  0  0  0
   -2.9390    0.6212    0.4605 O   0  0  0  0  0  0  0  0  0  0  0  0
   -3.0106    1.6265    1.4713 C   0  0  0  0  0  0  0  0  0  0  0  0
   -2.7303   -1.6487   -0.0033 O   0  0  0  0  0  0  0  0  0  0  0  0
   -2.2534   -2.9864   -0.1392 C   0  0  0  0  0  0  0  0  0  0  0  0
    1.8969   -3.9554    0.0117 H   0  0  0  0  0  0  0  0  0  0  0  0
    2.6525   -3.8491    1.6111 H   0  0  0  0  0  0  0  0  0  0  0  0
    1.3576   -2.7323    1.1763 H   0  0  0  0  0  0  0  0  0  0  0  0
    4.1441   -2.8287   -0.1021 H   0  0  0  0  0  0  0  0  0  0  0  0
    3.5261   -1.5683    1.0188 H   0  0  0  0  0  0  0  0  0  0  0  0
    1.5622   -0.6559   -2.8085 H   0  0  0  0  0  0  0  0  0  0  0  0
    2.4186    0.8416   -2.3675 H   0  0  0  0  0  0  0  0  0  0  0  0
    1.7673    4.4844   -0.0331 H   0  0  0  0  0  0  0  0  0  0  0  0
    0.3855    3.7541    0.8510 H   0  0  0  0  0  0  0  0  0  0  0  0
    1.9637    2.0951    1.8758 H   0  0  0  0  0  0  0  0  0  0  0  0
    3.3179    2.9013    1.0823 H   0  0  0  0  0  0  0  0  0  0  0  0
    2.3784    3.7595    2.3165 H   0  0  0  0  0  0  0  0  0  0  0  0
   -2.2656    1.4424    2.2477 H   0  0  0  0  0  0  0  0  0  0  0  0
   -4.0136    1.5711    1.8899 H   0  0  0  0  0  0  0  0  0  0  0  0
   -2.8351    2.5996    1.0153 H   0  0  0  0  0  0  0  0  0  0  0  0
   -3.1307   -3.6217   -0.0470 H   0  0  0  0  0  0  0  0  0  0  0  0
   -1.5385   -3.2110    0.6560 H   0  0  0  0  0  0  0  0  0  0  0  0
   -1.7835   -3.1233   -1.1138 H   0  0  0  0  0  0  0  0  0  0  0  0
  1  2  1  0  0  0  0
  2  3  1  0  0  0  0
  3  4  4  0  0  0  0
  4  5  2  0  0  0  0
  4  6  1  0  0  0  0
  6  7  1  0  0  0  0
  7  8  1  0  0  0  0
  7  9  1  0  0  0  0
  9 10  2  0  0  0  0
  9 11  4  0  0  0  0
 11 12  1  0  0  0  0
 12 13  1  0  0  0  0
  7 14  1  0  0  0  0
 14 15  1  0  0  0  0
 15 16  2  0  0  0  0
 15 17  1  0  0  0  0
 17 18  1  0  0  0  0
 15 19  1  0  0  0  0
 19 20  1  0  0  0  0
  1 21  1  0  0  0  0
  1 22  1  0  0  0  0
  1 23  1  0  0  0  0
  2 24  1  0  0  0  0
  2 25  1  0  0  0  0
  6 26  1  0  0  0  0
  6 27  1  0  0  0  0
 12 28  1  0  0  0  0
 12 29  1  0  0  0  0
 13 30  1  0  0  0  0
 13 31  1  0  0  0  0
 13 32  1  0  0  0  0
 18 33  1  0  0  0  0
 18 34  1  0  0  0  0
 18 35  1  0  0  0  0
 20 36  1  0  0  0  0
 20 37  1  0  0  0  0
 20 38  1  0  0  0  0
M  END
