 xtb: 6.7.1 (edcfbbe)
          04032521593D

 27 27  0     0  0            999 V2000
    3.0207   -1.6594   -0.4789 C   0  0  0  0  0  0  0  0  0  0  0  0
    1.6865   -1.0941   -0.1687 C   0  0  0  0  0  0  0  0  0  0  0  0
    1.4434    0.0812    0.4596 C   0  0  0  0  0  0  0  0  0  0  0  0
    0.0976    0.5476    0.7350 C   0  0  0  0  0  0  0  0  0  0  0  0
   -0.1247    1.4791    1.4951 O   0  0  0  0  0  0  0  0  0  0  0  0
   -0.9153   -0.1464    0.0687 N   0  0  0  0  0  0  0  0  0  0  0  0
   -0.7132   -1.4590   -0.3161 C   0  0  0  0  0  0  0  0  0  0  0  0
   -1.5959   -2.2794   -0.4901 O   0  0  0  0  0  0  0  0  0  0  0  0
    0.5928   -1.8341   -0.5076 N   0  0  0  0  0  0  0  0  0  0  0  0
   -2.2927    0.4379   -0.0139 C   0  0  0  0  0  0  0  0  0  0  0  0
   -2.2077    1.9595   -0.1792 C   0  0  0  0  0  0  0  0  0  0  0  0
   -3.0148   -0.0871   -1.2603 C   0  0  0  0  0  0  0  0  0  0  0  0
   -3.0539    0.0658    1.2570 C   0  0  0  0  0  0  0  0  0  0  0  0
    2.7087    1.0997    1.0597 Cl  0  0  0  0  0  0  0  0  0  0  0  0
    3.0777   -1.9156   -1.5339 H   0  0  0  0  0  0  0  0  0  0  0  0
    3.1835   -2.5655    0.1009 H   0  0  0  0  0  0  0  0  0  0  0  0
    3.7945   -0.9397   -0.2360 H   0  0  0  0  0  0  0  0  0  0  0  0
    0.7219   -2.7812   -0.8503 H   0  0  0  0  0  0  0  0  0  0  0  0
   -3.2001    2.3398   -0.4001 H   0  0  0  0  0  0  0  0  0  0  0  0
   -1.8467    2.4498    0.7184 H   0  0  0  0  0  0  0  0  0  0  0  0
   -1.5452    2.2139   -1.0037 H   0  0  0  0  0  0  0  0  0  0  0  0
   -3.9393    0.4687   -1.3815 H   0  0  0  0  0  0  0  0  0  0  0  0
   -3.2573   -1.1405   -1.1788 H   0  0  0  0  0  0  0  0  0  0  0  0
   -2.4001    0.0642   -2.1445 H   0  0  0  0  0  0  0  0  0  0  0  0
   -3.1259   -1.0160    1.3429 H   0  0  0  0  0  0  0  0  0  0  0  0
   -2.5358    0.4597    2.1288 H   0  0  0  0  0  0  0  0  0  0  0  0
   -4.0545    0.4850    1.2237 H   0  0  0  0  0  0  0  0  0  0  0  0
  1  2  1  0  0  0  0
  2  3  2  0  0  0  0
  3  4  1  0  0  0  0
  4  5  2  0  0  0  0
  4  6  1  0  0  0  0
  6  7  1  0  0  0  0
  7  8  2  0  0  0  0
  2  9  1  0  0  0  0
  7  9  1  0  0  0  0
  6 10  1  0  0  0  0
 10 11  1  0  0  0  0
 10 12  1  0  0  0  0
 10 13  1  0  0  0  0
  3 14  1  0  0  0  0
  1 15  1  0  0  0  0
  1 16  1  0  0  0  0
  1 17  1  0  0  0  0
  9 18  1  0  0  0  0
 11 19  1  0  0  0  0
 11 20  1  0  0  0  0
 11 21  1  0  0  0  0
 12 22  1  0  0  0  0
 12 23  1  0  0  0  0
 12 24  1  0  0  0  0
 13 25  1  0  0  0  0
 13 26  1  0  0  0  0
 13 27  1  0  0  0  0
M  END
