 xtb: 6.7.1 (edcfbbe)
          04092505213D

 41 40  0     0  0            999 V2000
    3.1602   -2.0982   -2.5105 C   0  0  0  0  0  0  0  0  0  0  0  0
    1.9795   -1.3571   -1.9181 C   0  0  0  0  0  0  0  0  0  0  0  0
    2.4266   -0.2363   -1.1176 O   0  0  0  0  0  0  0  0  0  0  0  0
    2.5550   -0.2852    0.4546 P   0  0  0  0  0  0  0  0  0  0  0  0
    3.3008    1.3733    1.1718 S   0  0  0  0  0  0  0  0  0  0  0  0
    3.4089   -1.6035    0.6938 O   0  0  0  0  0  0  0  0  0  0  0  0
    4.0853   -1.8779    1.9352 C   0  0  0  0  0  0  0  0  0  0  0  0
    3.1217   -2.0825    3.0858 C   0  0  0  0  0  0  0  0  0  0  0  0
    0.6070   -0.8053    1.1510 S   0  0  0  0  0  0  0  0  0  0  0  0
   -0.0451    0.8757    1.1650 C   0  0  0  0  0  0  0  0  0  0  0  0
   -0.3415    1.5402   -0.5110 S   0  0  0  0  0  0  0  0  0  0  0  0
   -2.3739    0.9811   -0.6902 P   0  0  0  0  0  0  0  0  0  0  0  0
   -3.1957    1.3027   -2.4376 S   0  0  0  0  0  0  0  0  0  0  0  0
   -2.9832    1.7581    0.5488 O   0  0  0  0  0  0  0  0  0  0  0  0
   -4.3895    2.0795    0.6192 C   0  0  0  0  0  0  0  0  0  0  0  0
   -5.2369    0.8388    0.8036 C   0  0  0  0  0  0  0  0  0  0  0  0
   -2.4345   -0.5254   -0.1788 O   0  0  0  0  0  0  0  0  0  0  0  0
   -2.1039   -1.6193   -1.0568 C   0  0  0  0  0  0  0  0  0  0  0  0
   -2.1613   -2.8947   -0.2423 C   0  0  0  0  0  0  0  0  0  0  0  0
    3.7782   -1.4135   -3.0850 H   0  0  0  0  0  0  0  0  0  0  0  0
    3.7631   -2.5372   -1.7203 H   0  0  0  0  0  0  0  0  0  0  0  0
    2.7939   -2.8843   -3.1633 H   0  0  0  0  0  0  0  0  0  0  0  0
    1.3735   -2.0204   -1.2936 H   0  0  0  0  0  0  0  0  0  0  0  0
    1.3602   -0.9066   -2.6975 H   0  0  0  0  0  0  0  0  0  0  0  0
    4.6567   -2.7828    1.7235 H   0  0  0  0  0  0  0  0  0  0  0  0
    4.7665   -1.0481    2.1458 H   0  0  0  0  0  0  0  0  0  0  0  0
    2.6272   -1.1439    3.3301 H   0  0  0  0  0  0  0  0  0  0  0  0
    2.3681   -2.8205    2.8229 H   0  0  0  0  0  0  0  0  0  0  0  0
    3.6732   -2.4241    3.9559 H   0  0  0  0  0  0  0  0  0  0  0  0
    0.6909    1.5346    1.6272 H   0  0  0  0  0  0  0  0  0  0  0  0
   -0.9783    0.8660    1.7201 H   0  0  0  0  0  0  0  0  0  0  0  0
   -4.4595    2.7544    1.4732 H   0  0  0  0  0  0  0  0  0  0  0  0
   -4.6701    2.6070   -0.2978 H   0  0  0  0  0  0  0  0  0  0  0  0
   -4.9002    0.2767    1.6705 H   0  0  0  0  0  0  0  0  0  0  0  0
   -6.2740    1.1290    0.9396 H   0  0  0  0  0  0  0  0  0  0  0  0
   -5.1590    0.2072   -0.0803 H   0  0  0  0  0  0  0  0  0  0  0  0
   -2.8219   -1.6246   -1.8826 H   0  0  0  0  0  0  0  0  0  0  0  0
   -1.1035   -1.4517   -1.4676 H   0  0  0  0  0  0  0  0  0  0  0  0
   -3.1567   -3.0273    0.1702 H   0  0  0  0  0  0  0  0  0  0  0  0
   -1.9229   -3.7371   -0.8830 H   0  0  0  0  0  0  0  0  0  0  0  0
   -1.4444   -2.8427    0.5730 H   0  0  0  0  0  0  0  0  0  0  0  0
  1  2  1  0  0  0  0
  2  3  1  0  0  0  0
  3  4  2  0  0  0  0
  4  5  2  0  0  0  0
  4  6  2  0  0  0  0
  6  7  1  0  0  0  0
  7  8  1  0  0  0  0
  4  9  1  0  0  0  0
  9 10  1  0  0  0  0
 10 11  1  0  0  0  0
 11 12  1  0  0  0  0
 12 13  2  0  0  0  0
 12 14  2  0  0  0  0
 14 15  1  0  0  0  0
 15 16  1  0  0  0  0
 12 17  2  0  0  0  0
 17 18  1  0  0  0  0
 18 19  1  0  0  0  0
  1 20  1  0  0  0  0
  1 21  1  0  0  0  0
  1 22  1  0  0  0  0
  2 23  1  0  0  0  0
  2 24  1  0  0  0  0
  7 25  1  0  0  0  0
  7 26  1  0  0  0  0
  8 27  1  0  0  0  0
  8 28  1  0  0  0  0
  8 29  1  0  0  0  0
 10 30  1  0  0  0  0
 10 31  1  0  0  0  0
 15 32  1  0  0  0  0
 15 33  1  0  0  0  0
 16 34  1  0  0  0  0
 16 35  1  0  0  0  0
 16 36  1  0  0  0  0
 18 37  1  0  0  0  0
 18 38  1  0  0  0  0
 19 39  1  0  0  0  0
 19 40  1  0  0  0  0
 19 41  1  0  0  0  0
M  END
