 xtb: 6.7.1 (edcfbbe)
          04092505203D

 41 40  0     0  0            999 V2000
    0.8855   -1.7184    2.2934 C   0  0  0  0  0  0  0  0  0  0  0  0
    1.9865   -1.9995    1.2895 C   0  0  0  0  0  0  0  0  0  0  0  0
    2.7341   -0.7998    1.0184 O   0  0  0  0  0  0  0  0  0  0  0  0
    2.6808   -0.0234   -0.3723 P   0  0  0  0  0  0  0  0  0  0  0  0
    2.8819   -1.1625   -1.9490 S   0  0  0  0  0  0  0  0  0  0  0  0
    3.8566    1.0079   -0.2291 O   0  0  0  0  0  0  0  0  0  0  0  0
    3.9004    2.0994    0.7244 C   0  0  0  0  0  0  0  0  0  0  0  0
    4.4405    1.6500    2.0659 C   0  0  0  0  0  0  0  0  0  0  0  0
    0.9182    1.1980   -0.3297 S   0  0  0  0  0  0  0  0  0  0  0  0
   -0.0303    0.3261   -1.5936 C   0  0  0  0  0  0  0  0  0  0  0  0
   -0.9107   -1.1264   -0.9550 S   0  0  0  0  0  0  0  0  0  0  0  0
   -2.4822   -0.0458   -0.0577 P   0  0  0  0  0  0  0  0  0  0  0  0
   -3.2161    1.4786   -1.0595 S   0  0  0  0  0  0  0  0  0  0  0  0
   -1.8143    0.2999    1.3335 O   0  0  0  0  0  0  0  0  0  0  0  0
   -2.2950    1.3488    2.2062 C   0  0  0  0  0  0  0  0  0  0  0  0
   -1.1004    2.0887    2.7733 C   0  0  0  0  0  0  0  0  0  0  0  0
   -3.5552   -1.1383    0.3690 O   0  0  0  0  0  0  0  0  0  0  0  0
   -4.6304   -1.5453   -0.4945 C   0  0  0  0  0  0  0  0  0  0  0  0
   -4.1294   -2.2959   -1.7115 C   0  0  0  0  0  0  0  0  0  0  0  0
    1.3102   -1.3138    3.2079 H   0  0  0  0  0  0  0  0  0  0  0  0
    0.1692   -1.0060    1.8916 H   0  0  0  0  0  0  0  0  0  0  0  0
    0.3668   -2.6448    2.5181 H   0  0  0  0  0  0  0  0  0  0  0  0
    1.5839   -2.3974    0.3520 H   0  0  0  0  0  0  0  0  0  0  0  0
    2.7150   -2.7063    1.6923 H   0  0  0  0  0  0  0  0  0  0  0  0
    4.5611    2.8286    0.2524 H   0  0  0  0  0  0  0  0  0  0  0  0
    2.8955    2.5196    0.8204 H   0  0  0  0  0  0  0  0  0  0  0  0
    4.5319    2.5143    2.7163 H   0  0  0  0  0  0  0  0  0  0  0  0
    3.7711    0.9266    2.5221 H   0  0  0  0  0  0  0  0  0  0  0  0
    5.4173    1.1912    1.9392 H   0  0  0  0  0  0  0  0  0  0  0  0
    0.6483   -0.0339   -2.3681 H   0  0  0  0  0  0  0  0  0  0  0  0
   -0.7559    1.0352   -1.9933 H   0  0  0  0  0  0  0  0  0  0  0  0
   -2.9390    2.0206    1.6287 H   0  0  0  0  0  0  0  0  0  0  0  0
   -2.8825    0.8682    2.9910 H   0  0  0  0  0  0  0  0  0  0  0  0
   -1.4505    2.8684    3.4417 H   0  0  0  0  0  0  0  0  0  0  0  0
   -0.4627    1.4024    3.3225 H   0  0  0  0  0  0  0  0  0  0  0  0
   -0.5240    2.5368    1.9675 H   0  0  0  0  0  0  0  0  0  0  0  0
   -5.2528   -2.1763    0.1413 H   0  0  0  0  0  0  0  0  0  0  0  0
   -5.1882   -0.6528   -0.7957 H   0  0  0  0  0  0  0  0  0  0  0  0
   -3.4855   -3.1185   -1.4102 H   0  0  0  0  0  0  0  0  0  0  0  0
   -4.9755   -2.6849   -2.2690 H   0  0  0  0  0  0  0  0  0  0  0  0
   -3.5616   -1.6253   -2.3558 H   0  0  0  0  0  0  0  0  0  0  0  0
  1  2  1  0  0  0  0
  2  3  1  0  0  0  0
  3  4  2  0  0  0  0
  4  5  2  0  0  0  0
  4  6  2  0  0  0  0
  6  7  1  0  0  0  0
  7  8  1  0  0  0  0
  4  9  1  0  0  0  0
  9 10  1  0  0  0  0
 10 11  1  0  0  0  0
 11 12  1  0  0  0  0
 12 13  2  0  0  0  0
 12 14  2  0  0  0  0
 14 15  1  0  0  0  0
 15 16  1  0  0  0  0
 12 17  2  0  0  0  0
 17 18  1  0  0  0  0
 18 19  1  0  0  0  0
  1 20  1  0  0  0  0
  1 21  1  0  0  0  0
  1 22  1  0  0  0  0
  2 23  1  0  0  0  0
  2 24  1  0  0  0  0
  7 25  1  0  0  0  0
  7 26  1  0  0  0  0
  8 27  1  0  0  0  0
  8 28  1  0  0  0  0
  8 29  1  0  0  0  0
 10 30  1  0  0  0  0
 10 31  1  0  0  0  0
 15 32  1  0  0  0  0
 15 33  1  0  0  0  0
 16 34  1  0  0  0  0
 16 35  1  0  0  0  0
 16 36  1  0  0  0  0
 18 37  1  0  0  0  0
 18 38  1  0  0  0  0
 19 39  1  0  0  0  0
 19 40  1  0  0  0  0
 19 41  1  0  0  0  0
M  END
