41
 xtb: 6.7.1 (edcfbbe)
C            2.22821229238648       -2.14883452202522        2.78484332699579
C            1.23808839235722       -1.68977407776431        1.74432658047738
O            1.53398980855386       -0.30716186909799        1.35394327165857
P            2.32121946864375        0.11836302359784        0.01580231921538
S            3.18535915107069       -1.33635251828663       -0.94988714580204
O            3.22019044653358        1.34318613811926        0.53640577469490
C            4.25573965383447        1.10481369257798        1.56215390401379
C            5.61493551291800        1.34010733975771        0.95611282020758
S            0.99734545135604        1.34557591557218       -1.10336532980990
C            0.21745129417257        0.09997323350922       -2.19797959015976
S           -0.74601418803378       -1.23494002087269       -1.39375200630020
P           -2.27974736503697       -0.10222866498509       -0.45647017780570
S           -2.94711088369284        1.43859711163062       -1.44549331871263
O           -1.78233756155489        0.19855485660876        1.04528492865384
C           -1.57674986738168        1.53962192793644        1.60366736785251
C           -2.75758439041437        1.92037256574506        2.46019521505414
O           -3.25412020158664       -1.35916665667651       -0.23436711464267
C           -4.47796983901343       -1.19572692925465        0.57599732626942
C           -5.68180066809219       -1.42288756029795       -0.30116377862223
H            2.23119552838831       -1.47642937596267        3.64769998665634
H            1.94326883061901       -3.14889659722829        3.12823941937072
H            3.23872626392032       -2.20197120166864        2.36892133617092
H            0.21866287219123       -1.65416158213083        2.13612011720507
H            1.25638273564396       -2.32574216679025        0.85571725666721
H            4.03283084256907        1.81467671439978        2.36226749093432
H            4.15471849944161        0.08882053463535        1.95700936606194
H            6.37522213337463        1.23119295992358        1.73645280327609
H            5.82293161237943        0.61402197204411        0.16523576260211
H            5.68785161276940        2.35017227206712        0.54306126021533
H            0.98524878194780       -0.41215215604311       -2.78522444111326
H           -0.43135353300364        0.67255516151061       -2.86737735663335
H           -0.65614020642598        1.45810317872006        2.18665922094299
H           -1.41977345611533        2.24870427021631        0.78697761836224
H           -3.66534738592417        2.01583296112180        1.85704013719550
H           -2.92728960676761        1.17921610803877        3.24674208089718
H           -2.55496884424906        2.88661546272294        2.93416376344909
H           -4.39873257535073       -1.94271614946320        1.36964206618950
H           -4.48742236123707       -0.20019012783986        1.03122372309908
H           -5.64117481791093       -2.40950424721139       -0.77145056825164
H           -6.58502353145635       -1.37231387661695        0.31564049525226
H           -5.75039138807855       -0.65791123304804       -1.07979606343239
