10
 xtb: 6.7.1 (edcfbbe)
C           -0.67452212890226       -0.53206702584347        0.35182511130384
C            0.66712797107887       -0.55616838431592       -0.32777147269957
O            1.43377766568125        0.58084837559686        0.10792442605630
O           -1.42564578260545        0.59485856219838       -0.13393628403884
H           -0.54013571821687       -0.46349194816544        1.44032435466361
H           -1.19498696762283       -1.47243528520408        0.12439726593350
H            0.53328655927671       -0.53365502092647       -1.41826629973312
H            1.17479276927869       -1.49261336263717       -0.05907891264659
H            2.24934542799834        0.59365401552728       -0.40791970243307
H           -2.24049591470807        0.64187834752966        0.38095805081037
