41
 xtb: 6.7.1 (edcfbbe)
C            1.55452032791439       -0.03385539355394        3.26646562748776
C            1.28984284035716       -0.92824685149512        2.08375088659978
O            2.23106000265473       -0.53797817517370        1.02542378144555
P            2.25922707523607       -1.34281718309218       -0.37115833976022
S            2.34182944119460       -3.28567029817056       -0.27024459726629
O            3.45211058595803       -0.57102684932097       -1.11643806493734
C            4.85698544311931       -0.99957685318942       -0.97951680443777
C            5.42055943803652       -0.68677446309389        0.38407085975029
S            0.55920134296819       -0.75843769523862       -1.46501221348348
C            0.62894255334031        1.08404304221264       -1.36512119141244
S           -0.13225374668362        1.85616437296552        0.11635448597499
P           -2.13002535719342        1.16657230326393       -0.08232407454382
S           -2.80641531333839        1.06647373636719       -1.90552123682123
O           -2.87907676966803        2.14890741916577        0.94796146786683
C           -3.17349366011226        3.54415389712098        0.57134429543351
C           -4.66618343654804        3.72328150219388        0.47126033272131
O           -2.14883806458756       -0.18233865526101        0.78293999996653
C           -2.84779178534948       -1.40482189341290        0.36105573063438
C           -2.28206488388395       -2.54142741394732        1.17206310885451
H            1.38948604254820        1.01602351169250        3.00844781827545
H            0.86752168287117       -0.30369857391157        4.07439674980140
H            2.57942803610774       -0.15722859480036        3.62813494410995
H            0.27175075647586       -0.80340548342694        1.70132044745140
H            1.46250612503482       -1.98220663272085        2.32354279632521
H            4.90967015627534       -2.06762328538974       -1.21180138974032
H            5.36622593800112       -0.43816604503562       -1.76469879208794
H            5.29612180412407        0.37227606278738        0.62732732155233
H            4.95235565628997       -1.29163889515944        1.16581476071262
H            6.49159883119146       -0.91490353508040        0.37433016713445
H            0.11630204880409        1.44494209478246       -2.26069483238702
H            1.66748437725773        1.42467867344251       -1.38733945078778
H           -2.73783718931259        4.15460463398833        1.36592668155970
H           -2.67315534785335        3.78246049173122       -0.37241038773588
H           -5.15467795747249        3.46138084988254        1.41408359603268
H           -4.88377732765934        4.77310507051688        0.24961096381398
H           -5.08102408831796        3.10601746334885       -0.33061861281615
H           -3.91641021157461       -1.25928742367271        0.54519663224094
H           -2.68290581199870       -1.55018345723372       -0.70981251538748
H           -2.81368187204670       -3.46038890977698        0.90593189231416
H           -1.21843522358107       -2.68327168158527        0.95825618108624
H           -2.41183875507270       -2.36607931516217        2.24384267186599
