 xtb: 6.7.1 (edcfbbe)
          04092513573D

 41 40  0     0  0            999 V2000
    4.2050   -1.0742   -2.7058 C   0  0  0  0  0  0  0  0  0  0  0  0
    4.3813   -1.6198   -1.3034 C   0  0  0  0  0  0  0  0  0  0  0  0
    3.1305   -1.7502   -0.6049 O   0  0  0  0  0  0  0  0  0  0  0  0
    2.2980   -0.5155   -0.0409 P   0  0  0  0  0  0  0  0  0  0  0  0
    3.3976    0.9853    0.5876 S   0  0  0  0  0  0  0  0  0  0  0  0
    1.3841   -1.2312    1.0379 O   0  0  0  0  0  0  0  0  0  0  0  0
    1.8754   -1.5557    2.3610 C   0  0  0  0  0  0  0  0  0  0  0  0
    1.3397   -0.5691    3.3795 C   0  0  0  0  0  0  0  0  0  0  0  0
    0.8411   -0.1200   -1.5160 S   0  0  0  0  0  0  0  0  0  0  0  0
    0.2853    1.4871   -0.8762 C   0  0  0  0  0  0  0  0  0  0  0  0
   -0.7305    1.3767    0.6182 S   0  0  0  0  0  0  0  0  0  0  0  0
   -2.4561    0.5099   -0.2955 P   0  0  0  0  0  0  0  0  0  0  0  0
   -2.9103    1.1678   -2.0769 S   0  0  0  0  0  0  0  0  0  0  0  0
   -3.5797    0.6501    0.8241 O   0  0  0  0  0  0  0  0  0  0  0  0
   -4.5290    1.7315    0.8781 C   0  0  0  0  0  0  0  0  0  0  0  0
   -3.8987    3.0371    1.3165 C   0  0  0  0  0  0  0  0  0  0  0  0
   -2.1918   -1.0467   -0.2869 O   0  0  0  0  0  0  0  0  0  0  0  0
   -1.9774   -1.7886    0.9391 C   0  0  0  0  0  0  0  0  0  0  0  0
   -1.3963   -3.1365    0.5695 C   0  0  0  0  0  0  0  0  0  0  0  0
    3.4802   -1.6679   -3.2568 H   0  0  0  0  0  0  0  0  0  0  0  0
    3.8568   -0.0430   -2.6666 H   0  0  0  0  0  0  0  0  0  0  0  0
    5.1600   -1.1041   -3.2216 H   0  0  0  0  0  0  0  0  0  0  0  0
    5.0399   -0.9697   -0.7184 H   0  0  0  0  0  0  0  0  0  0  0  0
    4.7790   -2.6359   -1.3172 H   0  0  0  0  0  0  0  0  0  0  0  0
    1.5167   -2.5679    2.5546 H   0  0  0  0  0  0  0  0  0  0  0  0
    2.9690   -1.5512    2.3525 H   0  0  0  0  0  0  0  0  0  0  0  0
    1.7069    0.4318    3.1629 H   0  0  0  0  0  0  0  0  0  0  0  0
    0.2536   -0.5513    3.3553 H   0  0  0  0  0  0  0  0  0  0  0  0
    1.6709   -0.8632    4.3704 H   0  0  0  0  0  0  0  0  0  0  0  0
   -0.2980    1.9454   -1.6751 H   0  0  0  0  0  0  0  0  0  0  0  0
    1.1530    2.0940   -0.6172 H   0  0  0  0  0  0  0  0  0  0  0  0
   -4.9894    1.8372   -0.1089 H   0  0  0  0  0  0  0  0  0  0  0  0
   -5.2722    1.3847    1.5983 H   0  0  0  0  0  0  0  0  0  0  0  0
   -3.3631    2.9062    2.2530 H   0  0  0  0  0  0  0  0  0  0  0  0
   -3.2028    3.3913    0.5580 H   0  0  0  0  0  0  0  0  0  0  0  0
   -4.6805    3.7787    1.4501 H   0  0  0  0  0  0  0  0  0  0  0  0
   -1.2904   -1.2182    1.5710 H   0  0  0  0  0  0  0  0  0  0  0  0
   -2.9391   -1.8856    1.4466 H   0  0  0  0  0  0  0  0  0  0  0  0
   -0.4466   -3.0037    0.0570 H   0  0  0  0  0  0  0  0  0  0  0  0
   -1.2397   -3.7157    1.4739 H   0  0  0  0  0  0  0  0  0  0  0  0
   -2.0773   -3.6690   -0.0880 H   0  0  0  0  0  0  0  0  0  0  0  0
  1  2  1  0  0  0  0
  2  3  1  0  0  0  0
  3  4  2  0  0  0  0
  4  5  2  0  0  0  0
  4  6  2  0  0  0  0
  6  7  1  0  0  0  0
  7  8  1  0  0  0  0
  4  9  1  0  0  0  0
  9 10  1  0  0  0  0
 10 11  1  0  0  0  0
 11 12  1  0  0  0  0
 12 13  2  0  0  0  0
 12 14  2  0  0  0  0
 14 15  1  0  0  0  0
 15 16  1  0  0  0  0
 12 17  2  0  0  0  0
 17 18  1  0  0  0  0
 18 19  1  0  0  0  0
  1 20  1  0  0  0  0
  1 21  1  0  0  0  0
  1 22  1  0  0  0  0
  2 23  1  0  0  0  0
  2 24  1  0  0  0  0
  7 25  1  0  0  0  0
  7 26  1  0  0  0  0
  8 27  1  0  0  0  0
  8 28  1  0  0  0  0
  8 29  1  0  0  0  0
 10 30  1  0  0  0  0
 10 31  1  0  0  0  0
 15 32  1  0  0  0  0
 15 33  1  0  0  0  0
 16 34  1  0  0  0  0
 16 35  1  0  0  0  0
 16 36  1  0  0  0  0
 18 37  1  0  0  0  0
 18 38  1  0  0  0  0
 19 39  1  0  0  0  0
 19 40  1  0  0  0  0
 19 41  1  0  0  0  0
M  END
