 xtb: 6.7.1 (edcfbbe)
          04092513593D

 41 40  0     0  0            999 V2000
    4.7997   -1.6140    0.7115 C   0  0  0  0  0  0  0  0  0  0  0  0
    4.4864   -1.5039   -0.7670 C   0  0  0  0  0  0  0  0  0  0  0  0
    3.0688   -1.4068   -1.0164 O   0  0  0  0  0  0  0  0  0  0  0  0
    2.2141   -0.1504   -0.5641 P   0  0  0  0  0  0  0  0  0  0  0  0
    3.0844    1.6036   -0.6751 S   0  0  0  0  0  0  0  0  0  0  0  0
    1.6916   -0.5500    0.8872 O   0  0  0  0  0  0  0  0  0  0  0  0
    1.6585    0.3328    2.0299 C   0  0  0  0  0  0  0  0  0  0  0  0
    0.6278   -0.2021    3.0021 C   0  0  0  0  0  0  0  0  0  0  0  0
    0.5913   -0.5389   -1.8621 S   0  0  0  0  0  0  0  0  0  0  0  0
   -0.1166    1.1348   -1.8230 C   0  0  0  0  0  0  0  0  0  0  0  0
   -0.7286    1.6028   -0.1920 S   0  0  0  0  0  0  0  0  0  0  0  0
   -2.4540    0.3308   -0.1285 P   0  0  0  0  0  0  0  0  0  0  0  0
   -3.2134   -0.1027   -1.8770 S   0  0  0  0  0  0  0  0  0  0  0  0
   -3.4712    1.0912    0.7977 O   0  0  0  0  0  0  0  0  0  0  0  0
   -3.3856    1.2206    2.2412 C   0  0  0  0  0  0  0  0  0  0  0  0
   -2.4569    2.3438    2.6523 C   0  0  0  0  0  0  0  0  0  0  0  0
   -2.0392   -0.9131    0.7776 O   0  0  0  0  0  0  0  0  0  0  0  0
   -1.5727   -2.1781    0.2779 C   0  0  0  0  0  0  0  0  0  0  0  0
   -2.3169   -3.2822    1.0025 C   0  0  0  0  0  0  0  0  0  0  0  0
    4.5508   -0.6793    1.2133 H   0  0  0  0  0  0  0  0  0  0  0  0
    4.2267   -2.4226    1.1580 H   0  0  0  0  0  0  0  0  0  0  0  0
    5.8599   -1.8088    0.8407 H   0  0  0  0  0  0  0  0  0  0  0  0
    4.7850   -2.4008   -1.3114 H   0  0  0  0  0  0  0  0  0  0  0  0
    4.9749   -0.6257   -1.2009 H   0  0  0  0  0  0  0  0  0  0  0  0
    2.6561    0.3402    2.4765 H   0  0  0  0  0  0  0  0  0  0  0  0
    1.4153    1.3451    1.6947 H   0  0  0  0  0  0  0  0  0  0  0  0
   -0.3550   -0.2115    2.5394 H   0  0  0  0  0  0  0  0  0  0  0  0
    0.8870   -1.2146    3.2977 H   0  0  0  0  0  0  0  0  0  0  0  0
    0.6050    0.4351    3.8799 H   0  0  0  0  0  0  0  0  0  0  0  0
   -0.9403    1.1374   -2.5372 H   0  0  0  0  0  0  0  0  0  0  0  0
    0.6477    1.8633   -2.0911 H   0  0  0  0  0  0  0  0  0  0  0  0
   -4.4154    1.4290    2.5352 H   0  0  0  0  0  0  0  0  0  0  0  0
   -3.0672    0.2647    2.6594 H   0  0  0  0  0  0  0  0  0  0  0  0
   -2.4928    2.4529    3.7318 H   0  0  0  0  0  0  0  0  0  0  0  0
   -1.4343    2.1296    2.3493 H   0  0  0  0  0  0  0  0  0  0  0  0
   -2.7657    3.2760    2.1875 H   0  0  0  0  0  0  0  0  0  0  0  0
   -1.7486   -2.2251   -0.8018 H   0  0  0  0  0  0  0  0  0  0  0  0
   -0.4971   -2.2270    0.4683 H   0  0  0  0  0  0  0  0  0  0  0  0
   -3.3803   -3.2186    0.7856 H   0  0  0  0  0  0  0  0  0  0  0  0
   -1.9418   -4.2426    0.6646 H   0  0  0  0  0  0  0  0  0  0  0  0
   -2.1679   -3.1946    2.0749 H   0  0  0  0  0  0  0  0  0  0  0  0
  1  2  1  0  0  0  0
  2  3  1  0  0  0  0
  3  4  2  0  0  0  0
  4  5  2  0  0  0  0
  4  6  2  0  0  0  0
  6  7  1  0  0  0  0
  7  8  1  0  0  0  0
  4  9  1  0  0  0  0
  9 10  1  0  0  0  0
 10 11  1  0  0  0  0
 11 12  1  0  0  0  0
 12 13  2  0  0  0  0
 12 14  2  0  0  0  0
 14 15  1  0  0  0  0
 15 16  1  0  0  0  0
 12 17  2  0  0  0  0
 17 18  1  0  0  0  0
 18 19  1  0  0  0  0
  1 20  1  0  0  0  0
  1 21  1  0  0  0  0
  1 22  1  0  0  0  0
  2 23  1  0  0  0  0
  2 24  1  0  0  0  0
  7 25  1  0  0  0  0
  7 26  1  0  0  0  0
  8 27  1  0  0  0  0
  8 28  1  0  0  0  0
  8 29  1  0  0  0  0
 10 30  1  0  0  0  0
 10 31  1  0  0  0  0
 15 32  1  0  0  0  0
 15 33  1  0  0  0  0
 16 34  1  0  0  0  0
 16 35  1  0  0  0  0
 16 36  1  0  0  0  0
 18 37  1  0  0  0  0
 18 38  1  0  0  0  0
 19 39  1  0  0  0  0
 19 40  1  0  0  0  0
 19 41  1  0  0  0  0
M  END
