 xtb: 6.7.1 (edcfbbe)
          04092514023D

 41 40  0     0  0            999 V2000
    3.4459    2.3077   -1.5210 C   0  0  0  0  0  0  0  0  0  0  0  0
    4.2263    1.6615   -0.3942 C   0  0  0  0  0  0  0  0  0  0  0  0
    3.8196    0.3018   -0.1661 O   0  0  0  0  0  0  0  0  0  0  0  0
    2.4171   -0.0895    0.4724 P   0  0  0  0  0  0  0  0  0  0  0  0
    1.8016    1.1393    1.8779 S   0  0  0  0  0  0  0  0  0  0  0  0
    2.6510   -1.5939    0.9125 O   0  0  0  0  0  0  0  0  0  0  0  0
    2.9906   -1.9575    2.2682 C   0  0  0  0  0  0  0  0  0  0  0  0
    4.4212   -1.6003    2.6141 C   0  0  0  0  0  0  0  0  0  0  0  0
    1.1881   -0.3994   -1.2270 S   0  0  0  0  0  0  0  0  0  0  0  0
   -0.0358   -1.5587   -0.5477 C   0  0  0  0  0  0  0  0  0  0  0  0
   -1.0833   -0.8813    0.7702 S   0  0  0  0  0  0  0  0  0  0  0  0
   -2.6134    0.0440   -0.4046 P   0  0  0  0  0  0  0  0  0  0  0  0
   -2.7153   -0.5993   -2.2576 S   0  0  0  0  0  0  0  0  0  0  0  0
   -2.4818    1.5978   -0.1474 O   0  0  0  0  0  0  0  0  0  0  0  0
   -1.2791    2.3599   -0.3420 C   0  0  0  0  0  0  0  0  0  0  0  0
   -1.0468    2.7018   -1.8007 C   0  0  0  0  0  0  0  0  0  0  0  0
   -3.9276   -0.1390    0.4539 O   0  0  0  0  0  0  0  0  0  0  0  0
   -4.7016   -1.3576    0.4128 C   0  0  0  0  0  0  0  0  0  0  0  0
   -6.0375   -1.1112   -0.2617 C   0  0  0  0  0  0  0  0  0  0  0  0
    3.5270    1.7168   -2.4294 H   0  0  0  0  0  0  0  0  0  0  0  0
    2.3940    2.3829   -1.2463 H   0  0  0  0  0  0  0  0  0  0  0  0
    3.8367    3.3042   -1.7023 H   0  0  0  0  0  0  0  0  0  0  0  0
    4.0936    2.2237    0.5361 H   0  0  0  0  0  0  0  0  0  0  0  0
    5.2877    1.5826   -0.6336 H   0  0  0  0  0  0  0  0  0  0  0  0
    2.2929   -1.4556    2.9465 H   0  0  0  0  0  0  0  0  0  0  0  0
    2.8278   -3.0358    2.3000 H   0  0  0  0  0  0  0  0  0  0  0  0
    4.5500   -0.5190    2.5997 H   0  0  0  0  0  0  0  0  0  0  0  0
    4.6473   -1.9678    3.6108 H   0  0  0  0  0  0  0  0  0  0  0  0
    5.1079   -2.0471    1.9003 H   0  0  0  0  0  0  0  0  0  0  0  0
    0.4770   -2.4201   -0.1294 H   0  0  0  0  0  0  0  0  0  0  0  0
   -0.6668   -1.8386   -1.3943 H   0  0  0  0  0  0  0  0  0  0  0  0
   -1.4382    3.2590    0.2564 H   0  0  0  0  0  0  0  0  0  0  0  0
   -0.4298    1.8075    0.0754 H   0  0  0  0  0  0  0  0  0  0  0  0
   -0.8432    1.8028   -2.3799 H   0  0  0  0  0  0  0  0  0  0  0  0
   -1.9259    3.1921   -2.2106 H   0  0  0  0  0  0  0  0  0  0  0  0
   -0.1958    3.3714   -1.8778 H   0  0  0  0  0  0  0  0  0  0  0  0
   -4.1393   -2.1309   -0.1197 H   0  0  0  0  0  0  0  0  0  0  0  0
   -4.8330   -1.6539    1.4554 H   0  0  0  0  0  0  0  0  0  0  0  0
   -6.6269   -2.0222   -0.2244 H   0  0  0  0  0  0  0  0  0  0  0  0
   -6.5732   -0.3146    0.2464 H   0  0  0  0  0  0  0  0  0  0  0  0
   -5.8864   -0.8276   -1.3008 H   0  0  0  0  0  0  0  0  0  0  0  0
  1  2  1  0  0  0  0
  2  3  1  0  0  0  0
  3  4  2  0  0  0  0
  4  5  2  0  0  0  0
  4  6  2  0  0  0  0
  6  7  1  0  0  0  0
  7  8  1  0  0  0  0
  4  9  1  0  0  0  0
  9 10  1  0  0  0  0
 10 11  1  0  0  0  0
 11 12  1  0  0  0  0
 12 13  2  0  0  0  0
 12 14  2  0  0  0  0
 14 15  1  0  0  0  0
 15 16  1  0  0  0  0
 12 17  2  0  0  0  0
 17 18  1  0  0  0  0
 18 19  1  0  0  0  0
  1 20  1  0  0  0  0
  1 21  1  0  0  0  0
  1 22  1  0  0  0  0
  2 23  1  0  0  0  0
  2 24  1  0  0  0  0
  7 25  1  0  0  0  0
  7 26  1  0  0  0  0
  8 27  1  0  0  0  0
  8 28  1  0  0  0  0
  8 29  1  0  0  0  0
 10 30  1  0  0  0  0
 10 31  1  0  0  0  0
 15 32  1  0  0  0  0
 15 33  1  0  0  0  0
 16 34  1  0  0  0  0
 16 35  1  0  0  0  0
 16 36  1  0  0  0  0
 18 37  1  0  0  0  0
 18 38  1  0  0  0  0
 19 39  1  0  0  0  0
 19 40  1  0  0  0  0
 19 41  1  0  0  0  0
M  END
