41
 xtb: 6.7.1 (edcfbbe)
C            5.24969380175364       -0.18452149990228       -1.69733468332505
C            4.94085732437057        0.64814408462507       -0.47937321608081
O            3.81615388986270        0.09839067230578        0.29458990139782
P            2.27578114818894        0.29989052633427       -0.12119117671782
S            1.78132485399606        1.86472337559021       -1.15942388580750
O            1.52292699017934        0.28362620007005        1.29115012902309
C            1.77128900985187       -0.75039103440210        2.31252917226276
C            2.49733571031501       -0.12830809936390        3.47799071204406
S            1.93025602009489       -1.58044525430996       -1.06049067408855
C            0.20369291058106       -1.39059651211246       -1.64048389962979
S           -1.07895587574907       -1.82475511079206       -0.38064335131430
P           -2.21405865813763       -0.04120352344072       -0.27141011757048
S           -2.53016266464766        0.89862637688704       -1.94778230859740
O           -1.47180904554756        0.77319761832995        0.89367236883766
C           -1.64234629040194        2.22393894752969        1.06797524476456
C           -2.97807286176021        2.55509027299071        1.68619519228328
O           -3.50819392812061       -0.58314400302431        0.52344646657634
C           -4.59305080716863       -1.27655155674757       -0.18595249513020
C           -5.67048450587571       -1.56382389161746        0.82662932386302
H            5.42858109822985       -1.22870750935236       -1.42465219510660
H            4.44213561011865       -0.13886586562887       -2.43353681009042
H            6.15801857693370        0.20944915449095       -2.16495565399150
H            4.70202385884813        1.68373596008448       -0.73818820436855
H            5.76630923423246        0.63943917111409        0.23501294796568
H            0.77974002999965       -1.11348226047360        2.59335978012042
H            2.33667230413098       -1.57696801569572        1.87275824321916
H            3.48654890275913        0.23049635073454        3.18046069615653
H            1.92385243083740        0.70509051367288        3.89343951128251
H            2.62325467734082       -0.88376487626896        4.26042381055521
H            0.09742215391808       -2.08910424242297       -2.47386568855539
H            0.03405235277843       -0.37289527992005       -2.00907784038175
H           -0.81151467510291        2.49990436240821        1.72063443936359
H           -1.50709549321256        2.70542740597177        0.09502654318629
H           -3.01356911995175        3.63063749706749        1.88841405404196
H           -3.80479078260705        2.30869535340455        1.01305982305855
H           -3.11567272704374        2.02139619285564        2.63092986195947
H           -4.95041509798633       -0.62273935764490       -0.98705726495573
H           -4.18852423071648       -2.19583124292595       -0.62227739880190
H           -5.29506112710159       -2.20449881434511        1.62932839400425
H           -6.05592529635283       -0.63596452927499        1.25872942523480
H           -6.49525777096422       -2.08159361900208        0.32778962612281
