 xtb: 6.7.1 (edcfbbe)
          04092507313D

 38 37  0     0  0            999 V2000
    3.2991   -3.3840    0.2915 C   0  0  0  0  0  0  0  0  0  0  0  0
    2.9620   -1.9966    0.8135 C   0  0  0  0  0  0  0  0  0  0  0  0
    2.7390   -1.0752   -0.2711 O   0  0  0  0  0  0  0  0  0  0  0  0
    1.5626   -1.0508   -0.8491 C   0  0  0  0  0  0  0  0  0  0  0  0
    0.6204   -1.7563   -0.5337 O   0  0  0  0  0  0  0  0  0  0  0  0
    1.4858   -0.0270   -1.9587 C   0  0  0  0  0  0  0  0  0  0  0  0
    0.3146    0.9246   -1.7272 C   0  0  0  0  0  0  0  0  0  0  0  0
    0.2120    1.5960   -2.5861 H   0  0  0  0  0  0  0  0  0  0  0  0
    0.4399    1.7904   -0.4822 C   0  0  0  0  0  0  0  0  0  0  0  0
   -0.5287    2.2691    0.0691 O   0  0  0  0  0  0  0  0  0  0  0  0
    1.6856    1.9604   -0.1216 O   0  0  0  0  0  0  0  0  0  0  0  0
    1.9540    2.7636    1.0462 C   0  0  0  0  0  0  0  0  0  0  0  0
    1.8856    4.2470    0.7243 C   0  0  0  0  0  0  0  0  0  0  0  0
   -1.3094    0.0888   -1.6633 S   0  0  0  0  0  0  0  0  0  0  0  0
   -1.5255   -0.5169    0.3723 P   0  0  0  0  0  0  0  0  0  0  0  0
   -0.2740   -0.1873    1.8454 S   0  0  0  0  0  0  0  0  0  0  0  0
   -2.9882    0.0826    0.6919 O   0  0  0  0  0  0  0  0  0  0  0  0
   -3.2618    1.4535    0.9716 C   0  0  0  0  0  0  0  0  0  0  0  0
   -1.9241   -2.0449    0.3315 O   0  0  0  0  0  0  0  0  0  0  0  0
   -2.8409   -2.6003   -0.6273 C   0  0  0  0  0  0  0  0  0  0  0  0
    4.1533   -3.3338   -0.3782 H   0  0  0  0  0  0  0  0  0  0  0  0
    3.5361   -4.0314    1.1292 H   0  0  0  0  0  0  0  0  0  0  0  0
    2.4483   -3.7995   -0.2437 H   0  0  0  0  0  0  0  0  0  0  0  0
    3.7957   -1.5634    1.3654 H   0  0  0  0  0  0  0  0  0  0  0  0
    2.0668   -2.0180    1.4427 H   0  0  0  0  0  0  0  0  0  0  0  0
    1.3218   -0.5554   -2.8993 H   0  0  0  0  0  0  0  0  0  0  0  0
    2.4199    0.5318   -1.9946 H   0  0  0  0  0  0  0  0  0  0  0  0
    1.2335    2.4896    1.8227 H   0  0  0  0  0  0  0  0  0  0  0  0
    2.9578    2.4625    1.3447 H   0  0  0  0  0  0  0  0  0  0  0  0
    0.8747    4.5221    0.4327 H   0  0  0  0  0  0  0  0  0  0  0  0
    2.1622    4.8132    1.6073 H   0  0  0  0  0  0  0  0  0  0  0  0
    2.5697    4.4866   -0.0850 H   0  0  0  0  0  0  0  0  0  0  0  0
   -2.5674    1.8322    1.7225 H   0  0  0  0  0  0  0  0  0  0  0  0
   -4.2823    1.4754    1.3459 H   0  0  0  0  0  0  0  0  0  0  0  0
   -3.1660    2.0484    0.0637 H   0  0  0  0  0  0  0  0  0  0  0  0
   -2.9571   -3.6402   -0.3331 H   0  0  0  0  0  0  0  0  0  0  0  0
   -2.4150   -2.5294   -1.6280 H   0  0  0  0  0  0  0  0  0  0  0  0
   -3.7939   -2.0751   -0.5839 H   0  0  0  0  0  0  0  0  0  0  0  0
  1  2  1  0  0  0  0
  2  3  1  0  0  0  0
  3  4  4  0  0  0  0
  4  5  2  0  0  0  0
  4  6  1  0  0  0  0
  6  7  1  0  0  0  0
  7  8  1  0  0  0  0
  7  9  1  0  0  0  0
  9 10  2  0  0  0  0
  9 11  4  0  0  0  0
 11 12  1  0  0  0  0
 12 13  1  0  0  0  0
  7 14  1  0  0  0  0
 14 15  1  0  0  0  0
 15 16  2  0  0  0  0
 15 17  1  0  0  0  0
 17 18  1  0  0  0  0
 15 19  2  0  0  0  0
 19 20  1  0  0  0  0
  1 21  1  0  0  0  0
  1 22  1  0  0  0  0
  1 23  1  0  0  0  0
  2 24  1  0  0  0  0
  2 25  1  0  0  0  0
  6 26  1  0  0  0  0
  6 27  1  0  0  0  0
 12 28  1  0  0  0  0
 12 29  1  0  0  0  0
 13 30  1  0  0  0  0
 13 31  1  0  0  0  0
 13 32  1  0  0  0  0
 18 33  1  0  0  0  0
 18 34  1  0  0  0  0
 18 35  1  0  0  0  0
 20 36  1  0  0  0  0
 20 37  1  0  0  0  0
 20 38  1  0  0  0  0
M  END
