 xtb: 6.7.1 (edcfbbe)
          04032520193D

 20 20  0     0  0            999 V2000
    0.6355    1.6978   -0.0427 C   0  0  0  0  0  0  0  0  0  0  0  0
    1.3972    0.3938   -0.2880 C   0  0  0  0  0  0  0  0  0  0  0  0
    1.5747    0.2756   -1.3707 H   0  0  0  0  0  0  0  0  0  0  0  0
    0.5384   -0.7857    0.2053 C   0  0  0  0  0  0  0  0  0  0  0  0
    0.3757   -0.6780    1.2843 H   0  0  0  0  0  0  0  0  0  0  0  0
   -0.8133   -0.7414   -0.5210 C   0  0  0  0  0  0  0  0  0  0  0  0
   -0.6503   -0.8477   -1.5998 H   0  0  0  0  0  0  0  0  0  0  0  0
   -1.4671    0.6335   -0.2634 C   0  0  0  0  0  0  0  0  0  0  0  0
   -2.3648    0.7300   -0.8907 H   0  0  0  0  0  0  0  0  0  0  0  0
   -0.6350    1.6890   -0.6751 O   0  0  0  0  0  0  0  0  0  0  0  0
   -1.7840    0.6952    1.0916 O   0  0  0  0  0  0  0  0  0  0  0  0
   -1.6691   -1.7872   -0.1570 O   0  0  0  0  0  0  0  0  0  0  0  0
    1.2180   -2.0076    0.0477 O   0  0  0  0  0  0  0  0  0  0  0  0
    2.6238    0.4556    0.3950 O   0  0  0  0  0  0  0  0  0  0  0  0
    1.1731    2.5439   -0.4684 H   0  0  0  0  0  0  0  0  0  0  0  0
    0.5292    1.8399    1.0389 H   0  0  0  0  0  0  0  0  0  0  0  0
   -2.3235    1.4783    1.2776 H   0  0  0  0  0  0  0  0  0  0  0  0
   -1.9245   -1.6748    0.7718 H   0  0  0  0  0  0  0  0  0  0  0  0
    1.1322   -2.3202   -0.8641 H   0  0  0  0  0  0  0  0  0  0  0  0
    2.9530   -0.4510    0.5065 H   0  0  0  0  0  0  0  0  0  0  0  0
  1  2  1  0  0  0  0
  2  3  1  0  0  0  0
  2  4  1  0  0  0  0
  4  5  1  0  0  0  0
  4  6  1  0  0  0  0
  6  7  1  0  0  0  0
  6  8  1  0  0  0  0
  8  9  1  0  0  0  0
  1 10  1  0  0  0  0
  8 10  1  0  0  0  0
  8 11  1  0  0  0  0
  6 12  1  0  0  0  0
  4 13  1  0  0  0  0
  2 14  1  0  0  0  0
  1 15  1  0  0  0  0
  1 16  1  0  0  0  0
 11 17  1  0  0  0  0
 12 18  1  0  0  0  0
 13 19  1  0  0  0  0
 14 20  1  0  0  0  0
M  END
