 xtb: 6.7.1 (edcfbbe)
          04092505213D

 41 40  0     0  0            999 V2000
    3.0157   -1.2858   -2.8615 C   0  0  0  0  0  0  0  0  0  0  0  0
    3.2520   -0.3223   -1.7164 C   0  0  0  0  0  0  0  0  0  0  0  0
    2.6466   -0.8719   -0.5248 O   0  0  0  0  0  0  0  0  0  0  0  0
    1.8741   -0.0218    0.5567 P   0  0  0  0  0  0  0  0  0  0  0  0
    1.1483    1.7159   -0.0371 S   0  0  0  0  0  0  0  0  0  0  0  0
    2.9872    0.1667    1.6778 O   0  0  0  0  0  0  0  0  0  0  0  0
    2.8462    1.0631    2.7961 C   0  0  0  0  0  0  0  0  0  0  0  0
    4.2343    1.4181    3.2906 C   0  0  0  0  0  0  0  0  0  0  0  0
    0.6881   -1.5185    1.4390 S   0  0  0  0  0  0  0  0  0  0  0  0
   -0.2506   -2.1722    0.0072 C   0  0  0  0  0  0  0  0  0  0  0  0
   -0.4354   -1.0244   -1.3794 S   0  0  0  0  0  0  0  0  0  0  0  0
   -1.9898    0.1937   -0.6463 P   0  0  0  0  0  0  0  0  0  0  0  0
   -2.3999    1.8402   -1.6221 S   0  0  0  0  0  0  0  0  0  0  0  0
   -1.5502    0.3208    0.8694 O   0  0  0  0  0  0  0  0  0  0  0  0
   -2.2841    1.1610    1.7884 C   0  0  0  0  0  0  0  0  0  0  0  0
   -1.4045    1.3951    2.9986 C   0  0  0  0  0  0  0  0  0  0  0  0
   -3.2486   -0.7824   -0.4858 O   0  0  0  0  0  0  0  0  0  0  0  0
   -4.2238   -0.9466   -1.5264 C   0  0  0  0  0  0  0  0  0  0  0  0
   -3.6574   -1.6927   -2.7176 C   0  0  0  0  0  0  0  0  0  0  0  0
    1.9497   -1.3859   -3.0524 H   0  0  0  0  0  0  0  0  0  0  0  0
    3.5048   -0.9042   -3.7517 H   0  0  0  0  0  0  0  0  0  0  0  0
    3.4251   -2.2608   -2.6145 H   0  0  0  0  0  0  0  0  0  0  0  0
    2.8083    0.6589   -1.9188 H   0  0  0  0  0  0  0  0  0  0  0  0
    4.3166   -0.1993   -1.5070 H   0  0  0  0  0  0  0  0  0  0  0  0
    2.3013    1.9533    2.4625 H   0  0  0  0  0  0  0  0  0  0  0  0
    2.2664    0.5522    3.5692 H   0  0  0  0  0  0  0  0  0  0  0  0
    4.7899    1.9300    2.5097 H   0  0  0  0  0  0  0  0  0  0  0  0
    4.1484    2.0684    4.1549 H   0  0  0  0  0  0  0  0  0  0  0  0
    4.7687    0.5145    3.5690 H   0  0  0  0  0  0  0  0  0  0  0  0
   -1.2312   -2.4585    0.3817 H   0  0  0  0  0  0  0  0  0  0  0  0
    0.2907   -3.0276   -0.3902 H   0  0  0  0  0  0  0  0  0  0  0  0
   -2.5283    2.1000    1.2798 H   0  0  0  0  0  0  0  0  0  0  0  0
   -3.2081    0.6418    2.0536 H   0  0  0  0  0  0  0  0  0  0  0  0
   -1.1394    0.4447    3.4542 H   0  0  0  0  0  0  0  0  0  0  0  0
   -0.4940    1.9082    2.6973 H   0  0  0  0  0  0  0  0  0  0  0  0
   -1.9393    2.0085    3.7159 H   0  0  0  0  0  0  0  0  0  0  0  0
   -5.0324   -1.4999   -1.0470 H   0  0  0  0  0  0  0  0  0  0  0  0
   -4.5751    0.0454   -1.8278 H   0  0  0  0  0  0  0  0  0  0  0  0
   -3.2496   -2.6520   -2.4100 H   0  0  0  0  0  0  0  0  0  0  0  0
   -4.4438   -1.8525   -3.4481 H   0  0  0  0  0  0  0  0  0  0  0  0
   -2.8639   -1.1029   -3.1768 H   0  0  0  0  0  0  0  0  0  0  0  0
  1  2  1  0  0  0  0
  2  3  1  0  0  0  0
  3  4  2  0  0  0  0
  4  5  2  0  0  0  0
  4  6  2  0  0  0  0
  6  7  1  0  0  0  0
  7  8  1  0  0  0  0
  4  9  1  0  0  0  0
  9 10  1  0  0  0  0
 10 11  1  0  0  0  0
 11 12  1  0  0  0  0
 12 13  2  0  0  0  0
 12 14  2  0  0  0  0
 14 15  1  0  0  0  0
 15 16  1  0  0  0  0
 12 17  1  0  0  0  0
 17 18  1  0  0  0  0
 18 19  1  0  0  0  0
  1 20  1  0  0  0  0
  1 21  1  0  0  0  0
  1 22  1  0  0  0  0
  2 23  1  0  0  0  0
  2 24  1  0  0  0  0
  7 25  1  0  0  0  0
  7 26  1  0  0  0  0
  8 27  1  0  0  0  0
  8 28  1  0  0  0  0
  8 29  1  0  0  0  0
 10 30  1  0  0  0  0
 10 31  1  0  0  0  0
 15 32  1  0  0  0  0
 15 33  1  0  0  0  0
 16 34  1  0  0  0  0
 16 35  1  0  0  0  0
 16 36  1  0  0  0  0
 18 37  1  0  0  0  0
 18 38  1  0  0  0  0
 19 39  1  0  0  0  0
 19 40  1  0  0  0  0
 19 41  1  0  0  0  0
M  END
