 xtb: 6.7.1 (edcfbbe)
          04092505203D

 41 40  0     0  0            999 V2000
    3.7839   -1.1401   -2.1019 C   0  0  0  0  0  0  0  0  0  0  0  0
    2.6398   -0.2061   -2.4290 C   0  0  0  0  0  0  0  0  0  0  0  0
    2.3639    0.7351   -1.3659 O   0  0  0  0  0  0  0  0  0  0  0  0
    2.0732    0.3999    0.1419 P   0  0  0  0  0  0  0  0  0  0  0  0
    1.1391    1.8381    1.0874 S   0  0  0  0  0  0  0  0  0  0  0  0
    3.5586    0.1736    0.6835 O   0  0  0  0  0  0  0  0  0  0  0  0
    3.9197    0.2599    2.0697 C   0  0  0  0  0  0  0  0  0  0  0  0
    3.3286   -0.8659    2.8952 C   0  0  0  0  0  0  0  0  0  0  0  0
    1.1648   -1.5242    0.2076 S   0  0  0  0  0  0  0  0  0  0  0  0
   -0.1895   -1.1987    1.3792 C   0  0  0  0  0  0  0  0  0  0  0  0
   -1.8444   -1.4754    0.6955 S   0  0  0  0  0  0  0  0  0  0  0  0
   -2.0440    0.2569   -0.5151 P   0  0  0  0  0  0  0  0  0  0  0  0
   -0.7616    0.5092   -1.9728 S   0  0  0  0  0  0  0  0  0  0  0  0
   -2.0649    1.4957    0.4568 O   0  0  0  0  0  0  0  0  0  0  0  0
   -3.0446    1.7146    1.5058 C   0  0  0  0  0  0  0  0  0  0  0  0
   -2.4760    1.3451    2.8619 C   0  0  0  0  0  0  0  0  0  0  0  0
   -3.5620    0.1645   -0.9823 O   0  0  0  0  0  0  0  0  0  0  0  0
   -3.9702   -0.5440   -2.1665 C   0  0  0  0  0  0  0  0  0  0  0  0
   -3.7394   -2.0365   -2.0513 C   0  0  0  0  0  0  0  0  0  0  0  0
    3.5168   -1.7855   -1.2665 H   0  0  0  0  0  0  0  0  0  0  0  0
    3.9944   -1.7563   -2.9704 H   0  0  0  0  0  0  0  0  0  0  0  0
    4.6704   -0.5691   -1.8381 H   0  0  0  0  0  0  0  0  0  0  0  0
    1.7178   -0.7559   -2.6388 H   0  0  0  0  0  0  0  0  0  0  0  0
    2.8711    0.4420   -3.2757 H   0  0  0  0  0  0  0  0  0  0  0  0
    5.0098    0.2176    2.0552 H   0  0  0  0  0  0  0  0  0  0  0  0
    3.5913    1.2316    2.4529 H   0  0  0  0  0  0  0  0  0  0  0  0
    3.5425   -1.8263    2.4335 H   0  0  0  0  0  0  0  0  0  0  0  0
    3.7590   -0.8408    3.8911 H   0  0  0  0  0  0  0  0  0  0  0  0
    2.2503   -0.7404    2.9753 H   0  0  0  0  0  0  0  0  0  0  0  0
   -0.1024   -0.1625    1.7207 H   0  0  0  0  0  0  0  0  0  0  0  0
   -0.0958   -1.9059    2.1993 H   0  0  0  0  0  0  0  0  0  0  0  0
   -3.2548    2.7837    1.4470 H   0  0  0  0  0  0  0  0  0  0  0  0
   -3.9467    1.1458    1.2741 H   0  0  0  0  0  0  0  0  0  0  0  0
   -1.4974    1.8050    2.9848 H   0  0  0  0  0  0  0  0  0  0  0  0
   -3.1417    1.7155    3.6349 H   0  0  0  0  0  0  0  0  0  0  0  0
   -2.3819    0.2669    2.9642 H   0  0  0  0  0  0  0  0  0  0  0  0
   -5.0304   -0.3034   -2.2571 H   0  0  0  0  0  0  0  0  0  0  0  0
   -3.4202   -0.1334   -3.0190 H   0  0  0  0  0  0  0  0  0  0  0  0
   -4.1899   -2.4213   -1.1398 H   0  0  0  0  0  0  0  0  0  0  0  0
   -4.1793   -2.5331   -2.9102 H   0  0  0  0  0  0  0  0  0  0  0  0
   -2.6710   -2.2470   -2.0323 H   0  0  0  0  0  0  0  0  0  0  0  0
  1  2  1  0  0  0  0
  2  3  1  0  0  0  0
  3  4  2  0  0  0  0
  4  5  2  0  0  0  0
  4  6  2  0  0  0  0
  6  7  1  0  0  0  0
  7  8  1  0  0  0  0
  4  9  1  0  0  0  0
  9 10  1  0  0  0  0
 10 11  1  0  0  0  0
 11 12  1  0  0  0  0
 12 13  2  0  0  0  0
 12 14  2  0  0  0  0
 14 15  1  0  0  0  0
 15 16  1  0  0  0  0
 12 17  2  0  0  0  0
 17 18  1  0  0  0  0
 18 19  1  0  0  0  0
  1 20  1  0  0  0  0
  1 21  1  0  0  0  0
  1 22  1  0  0  0  0
  2 23  1  0  0  0  0
  2 24  1  0  0  0  0
  7 25  1  0  0  0  0
  7 26  1  0  0  0  0
  8 27  1  0  0  0  0
  8 28  1  0  0  0  0
  8 29  1  0  0  0  0
 10 30  1  0  0  0  0
 10 31  1  0  0  0  0
 15 32  1  0  0  0  0
 15 33  1  0  0  0  0
 16 34  1  0  0  0  0
 16 35  1  0  0  0  0
 16 36  1  0  0  0  0
 18 37  1  0  0  0  0
 18 38  1  0  0  0  0
 19 39  1  0  0  0  0
 19 40  1  0  0  0  0
 19 41  1  0  0  0  0
M  END
