9
CONF1
C -2.2835770491 -0.3281986116 -0.2657810701
C -1.2279451471 0.0224217272 0.4660643616
C -0.0969118526 0.8036374560 -0.0842546014
Cl 1.4627912086 -0.2108651038 -0.0280806250
H -3.1145593652 -0.8725481354 0.1717315701
H -2.3472499038 -0.0775672477 -1.3217903278
H -1.1712457978 -0.2387742100 1.5207559370
H -0.2421800704 1.0734598658 -1.1307653280
H 0.1321515914 1.6879933708 0.5126592465
9
CONF2
C -1.8467064527 -0.6472147443 -0.1358612775
C -1.3526128480 0.5238704055 0.2501682762
C 0.0713152782 0.9465494646 0.3271981432
Cl 1.2634898700 -0.3419362435 -0.1808093170
H -2.9191687310 -0.8134398665 -0.1407957132
H -1.2094002325 -1.4666586197 -0.4538612060
H -2.0280613457 1.3216313156 0.5626696306
H 0.2570445954 1.8080731615 -0.3208042021
H 0.3398344399 1.2262486021 1.3500990870
