18
 xtb: 6.7.1 (edcfbbe)
C           -0.73084600625046       -1.26131804585849        0.23330352797474
C           -1.45819115484546        0.00213613692832       -0.23336114040138
C           -0.72710604331512        1.26340852736170        0.23334899153396
C            0.73080682708258        1.26127046600488       -0.23332256274689
C            1.45817449826526       -0.00214145885129        0.23340316888294
C            0.72711803784855       -1.26346503454219       -0.23322341597148
H           -1.24846976161669       -2.15545055004379       -0.13424298639107
H           -0.75689648627679       -1.30562459850558        1.33139716908433
H           -1.50964249409286        0.00223737780125       -1.33141324705532
H           -2.49115299310759        0.00365182669102        0.13455285816153
H           -1.24213332252973        2.15909805557309       -0.13405578591557
H           -0.75292696634047        1.30769006052191        1.33145298076261
H            0.75672854214189        1.30544084243837       -1.33142790195843
H            1.24846905388937        2.15545161773972        0.13405169842524
H            2.49112706064418       -0.00367585692090       -0.13453558755646
H            1.50966066272078       -0.00216810071627        1.33145221001575
H            0.75304848655999       -1.30787005955429       -1.33131587292349
H            1.24211613478780       -2.15910751086919        0.13433020772880
