 xtb: 6.7.1 (edcfbbe)
          04092505213D

 41 40  0     0  0            999 V2000
    3.3873    0.3864   -2.8546 C   0  0  0  0  0  0  0  0  0  0  0  0
    1.9324    0.5879   -2.4893 C   0  0  0  0  0  0  0  0  0  0  0  0
    1.4708   -0.3854   -1.5307 O   0  0  0  0  0  0  0  0  0  0  0  0
    2.0650   -0.4861   -0.0672 P   0  0  0  0  0  0  0  0  0  0  0  0
    2.6825    1.1591    0.8096 S   0  0  0  0  0  0  0  0  0  0  0  0
    3.2077   -1.5691   -0.2973 O   0  0  0  0  0  0  0  0  0  0  0  0
    4.2524   -1.8124    0.6584 C   0  0  0  0  0  0  0  0  0  0  0  0
    3.7242   -2.3994    1.9517 C   0  0  0  0  0  0  0  0  0  0  0  0
    0.5108   -1.5822    0.8678 S   0  0  0  0  0  0  0  0  0  0  0  0
    0.0098   -0.3927    2.1631 C   0  0  0  0  0  0  0  0  0  0  0  0
   -1.7856   -0.1747    2.2623 S   0  0  0  0  0  0  0  0  0  0  0  0
   -2.1381    0.6568    0.3523 P   0  0  0  0  0  0  0  0  0  0  0  0
   -0.7191    1.7443   -0.4627 S   0  0  0  0  0  0  0  0  0  0  0  0
   -3.4675    1.4127    0.7450 O   0  0  0  0  0  0  0  0  0  0  0  0
   -3.9923    2.5138   -0.0263 C   0  0  0  0  0  0  0  0  0  0  0  0
   -4.4157    2.0881   -1.4165 C   0  0  0  0  0  0  0  0  0  0  0  0
   -2.6853   -0.5279   -0.5580 O   0  0  0  0  0  0  0  0  0  0  0  0
   -1.9391   -1.2631   -1.5415 C   0  0  0  0  0  0  0  0  0  0  0  0
   -2.8249   -1.4840   -2.7521 C   0  0  0  0  0  0  0  0  0  0  0  0
    3.5518   -0.6358   -3.1856 H   0  0  0  0  0  0  0  0  0  0  0  0
    3.6556    1.0750   -3.6496 H   0  0  0  0  0  0  0  0  0  0  0  0
    4.0181    0.5838   -1.9885 H   0  0  0  0  0  0  0  0  0  0  0  0
    1.2746    0.4384   -3.3467 H   0  0  0  0  0  0  0  0  0  0  0  0
    1.7633    1.5861   -2.0712 H   0  0  0  0  0  0  0  0  0  0  0  0
    4.9206   -2.5046    0.1445 H   0  0  0  0  0  0  0  0  0  0  0  0
    4.7696   -0.8671    0.8518 H   0  0  0  0  0  0  0  0  0  0  0  0
    3.1188   -1.6586    2.4732 H   0  0  0  0  0  0  0  0  0  0  0  0
    3.1129   -3.2751    1.7487 H   0  0  0  0  0  0  0  0  0  0  0  0
    4.5589   -2.6795    2.5862 H   0  0  0  0  0  0  0  0  0  0  0  0
    0.4989    0.5642    1.9613 H   0  0  0  0  0  0  0  0  0  0  0  0
    0.3067   -0.7871    3.1315 H   0  0  0  0  0  0  0  0  0  0  0  0
   -4.8381    2.8633    0.5672 H   0  0  0  0  0  0  0  0  0  0  0  0
   -3.2265    3.2943   -0.0780 H   0  0  0  0  0  0  0  0  0  0  0  0
   -5.0975    1.2437   -1.3591 H   0  0  0  0  0  0  0  0  0  0  0  0
   -4.9067    2.9191   -1.9135 H   0  0  0  0  0  0  0  0  0  0  0  0
   -3.5386    1.7987   -1.9943 H   0  0  0  0  0  0  0  0  0  0  0  0
   -1.0383   -0.6978   -1.8039 H   0  0  0  0  0  0  0  0  0  0  0  0
   -1.6427   -2.2126   -1.0878 H   0  0  0  0  0  0  0  0  0  0  0  0
   -2.2948   -2.1024   -3.4690 H   0  0  0  0  0  0  0  0  0  0  0  0
   -3.7400   -1.9856   -2.4513 H   0  0  0  0  0  0  0  0  0  0  0  0
   -3.0786   -0.5349   -3.2165 H   0  0  0  0  0  0  0  0  0  0  0  0
  1  2  1  0  0  0  0
  2  3  1  0  0  0  0
  3  4  2  0  0  0  0
  4  5  2  0  0  0  0
  4  6  2  0  0  0  0
  6  7  1  0  0  0  0
  7  8  1  0  0  0  0
  4  9  1  0  0  0  0
  9 10  1  0  0  0  0
 10 11  1  0  0  0  0
 11 12  1  0  0  0  0
 12 13  2  0  0  0  0
 12 14  2  0  0  0  0
 14 15  1  0  0  0  0
 15 16  1  0  0  0  0
 12 17  2  0  0  0  0
 17 18  1  0  0  0  0
 18 19  1  0  0  0  0
  1 20  1  0  0  0  0
  1 21  1  0  0  0  0
  1 22  1  0  0  0  0
  2 23  1  0  0  0  0
  2 24  1  0  0  0  0
  7 25  1  0  0  0  0
  7 26  1  0  0  0  0
  8 27  1  0  0  0  0
  8 28  1  0  0  0  0
  8 29  1  0  0  0  0
 10 30  1  0  0  0  0
 10 31  1  0  0  0  0
 15 32  1  0  0  0  0
 15 33  1  0  0  0  0
 16 34  1  0  0  0  0
 16 35  1  0  0  0  0
 16 36  1  0  0  0  0
 18 37  1  0  0  0  0
 18 38  1  0  0  0  0
 19 39  1  0  0  0  0
 19 40  1  0  0  0  0
 19 41  1  0  0  0  0
M  END
