 xtb: 6.7.1 (edcfbbe)
          04092505213D

 41 40  0     0  0            999 V2000
    4.6289   -1.6084    0.6774 C   0  0  0  0  0  0  0  0  0  0  0  0
    4.1280   -0.1856    0.8254 C   0  0  0  0  0  0  0  0  0  0  0  0
    3.5829    0.3002   -0.4284 O   0  0  0  0  0  0  0  0  0  0  0  0
    2.0231    0.3947   -0.7184 P   0  0  0  0  0  0  0  0  0  0  0  0
    1.7401    1.1561   -2.4949 S   0  0  0  0  0  0  0  0  0  0  0  0
    1.4141    1.1971    0.5261 O   0  0  0  0  0  0  0  0  0  0  0  0
    1.5382    2.6321    0.5808 C   0  0  0  0  0  0  0  0  0  0  0  0
    0.9945    3.0897    1.9173 C   0  0  0  0  0  0  0  0  0  0  0  0
    1.2711   -1.5225   -0.3365 S   0  0  0  0  0  0  0  0  0  0  0  0
   -0.1394   -1.5495   -1.4954 C   0  0  0  0  0  0  0  0  0  0  0  0
   -1.7063   -1.8830   -0.6790 S   0  0  0  0  0  0  0  0  0  0  0  0
   -1.9101   -0.0113    0.3231 P   0  0  0  0  0  0  0  0  0  0  0  0
   -1.5164    1.5411   -0.8109 S   0  0  0  0  0  0  0  0  0  0  0  0
   -0.9842    0.0199    1.5963 O   0  0  0  0  0  0  0  0  0  0  0  0
   -1.1855   -0.7087    2.8339 C   0  0  0  0  0  0  0  0  0  0  0  0
   -1.0437   -2.2074    2.6663 C   0  0  0  0  0  0  0  0  0  0  0  0
   -3.3520   -0.1097    0.9797 O   0  0  0  0  0  0  0  0  0  0  0  0
   -4.5454   -0.5453    0.3026 C   0  0  0  0  0  0  0  0  0  0  0  0
   -4.8506    0.2740   -0.9335 C   0  0  0  0  0  0  0  0  0  0  0  0
    3.8026   -2.2873    0.4805 H   0  0  0  0  0  0  0  0  0  0  0  0
    5.3357   -1.6668   -0.1455 H   0  0  0  0  0  0  0  0  0  0  0  0
    5.1234   -1.9050    1.5970 H   0  0  0  0  0  0  0  0  0  0  0  0
    4.9485    0.4989    1.0492 H   0  0  0  0  0  0  0  0  0  0  0  0
    3.3615   -0.1112    1.6012 H   0  0  0  0  0  0  0  0  0  0  0  0
    2.5919    2.9009    0.4525 H   0  0  0  0  0  0  0  0  0  0  0  0
    0.9632    3.0543   -0.2503 H   0  0  0  0  0  0  0  0  0  0  0  0
    1.0532    4.1717    1.9731 H   0  0  0  0  0  0  0  0  0  0  0  0
   -0.0438    2.7805    2.0080 H   0  0  0  0  0  0  0  0  0  0  0  0
    1.5687    2.6507    2.7280 H   0  0  0  0  0  0  0  0  0  0  0  0
    0.0197   -2.3649   -2.1965 H   0  0  0  0  0  0  0  0  0  0  0  0
   -0.1799   -0.5866   -2.0133 H   0  0  0  0  0  0  0  0  0  0  0  0
   -0.4059   -0.3055    3.4824 H   0  0  0  0  0  0  0  0  0  0  0  0
   -2.1691   -0.4462    3.2271 H   0  0  0  0  0  0  0  0  0  0  0  0
   -0.1098   -2.4466    2.1622 H   0  0  0  0  0  0  0  0  0  0  0  0
   -1.0466   -2.6700    3.6485 H   0  0  0  0  0  0  0  0  0  0  0  0
   -1.8695   -2.6105    2.0848 H   0  0  0  0  0  0  0  0  0  0  0  0
   -4.4261   -1.6012    0.0457 H   0  0  0  0  0  0  0  0  0  0  0  0
   -5.3241   -0.4306    1.0587 H   0  0  0  0  0  0  0  0  0  0  0  0
   -4.9060    1.3314   -0.6852 H   0  0  0  0  0  0  0  0  0  0  0  0
   -4.0672    0.1390   -1.6779 H   0  0  0  0  0  0  0  0  0  0  0  0
   -5.7976   -0.0472   -1.3549 H   0  0  0  0  0  0  0  0  0  0  0  0
  1  2  1  0  0  0  0
  2  3  1  0  0  0  0
  3  4  2  0  0  0  0
  4  5  2  0  0  0  0
  4  6  1  0  0  0  0
  6  7  1  0  0  0  0
  7  8  1  0  0  0  0
  4  9  1  0  0  0  0
  9 10  1  0  0  0  0
 10 11  1  0  0  0  0
 11 12  1  0  0  0  0
 12 13  2  0  0  0  0
 12 14  2  0  0  0  0
 14 15  1  0  0  0  0
 15 16  1  0  0  0  0
 12 17  2  0  0  0  0
 17 18  1  0  0  0  0
 18 19  1  0  0  0  0
  1 20  1  0  0  0  0
  1 21  1  0  0  0  0
  1 22  1  0  0  0  0
  2 23  1  0  0  0  0
  2 24  1  0  0  0  0
  7 25  1  0  0  0  0
  7 26  1  0  0  0  0
  8 27  1  0  0  0  0
  8 28  1  0  0  0  0
  8 29  1  0  0  0  0
 10 30  1  0  0  0  0
 10 31  1  0  0  0  0
 15 32  1  0  0  0  0
 15 33  1  0  0  0  0
 16 34  1  0  0  0  0
 16 35  1  0  0  0  0
 16 36  1  0  0  0  0
 18 37  1  0  0  0  0
 18 38  1  0  0  0  0
 19 39  1  0  0  0  0
 19 40  1  0  0  0  0
 19 41  1  0  0  0  0
M  END
