 xtb: 6.7.1 (edcfbbe)
          04032519443D

  7  7  0     0  0            999 V2000
    1.3726   -0.0016    0.0031 C   0  0  0  0  0  0  0  0  0  0  0  0
   -0.0728   -0.0000    0.0053 N   0  0  0  0  0  0  0  0  0  0  0  0
   -0.6477   -1.0704   -0.0016 O   0  0  0  0  0  0  0  0  0  0  0  0
   -0.6450    1.0719   -0.0016 O   0  0  0  0  0  0  0  0  0  0  0  0
    1.7324   -0.9124    0.4756 H   0  0  0  0  0  0  0  0  0  0  0  0
    1.7343    0.8956    0.4999 H   0  0  0  0  0  0  0  0  0  0  0  0
    1.7089    0.0132   -1.0350 H   0  0  0  0  0  0  0  0  0  0  0  0
  1  2  1  0  0  0  0
  2  3  4  0  0  0  0
  2  4  4  0  0  0  0
  3  4  1  0  0  0  0
  1  5  1  0  0  0  0
  1  6  1  0  0  0  0
  1  7  1  0  0  0  0
M  END
