 xtb: 6.7.1 (edcfbbe)
          04032519423D

 20 20  0     0  0            999 V2000
    0.8151    1.3084   -1.0269 C   0  0  0  0  0  0  0  0  0  0  0  0
    1.4449    0.3272   -0.0348 C   0  0  0  0  0  0  0  0  0  0  0  0
    2.4632    0.0834   -0.3655 H   0  0  0  0  0  0  0  0  0  0  0  0
    0.6371   -0.9947    0.0160 C   0  0  0  0  0  0  0  0  0  0  0  0
    0.6280   -1.3286    1.0600 H   0  0  0  0  0  0  0  0  0  0  0  0
   -0.8159   -0.7657   -0.4515 C   0  0  0  0  0  0  0  0  0  0  0  0
   -0.8706   -0.8598   -1.5423 H   0  0  0  0  0  0  0  0  0  0  0  0
   -1.2819    0.6517   -0.0573 C   0  0  0  0  0  0  0  0  0  0  0  0
   -2.3205    0.7970   -0.3820 H   0  0  0  0  0  0  0  0  0  0  0  0
   -0.5265    1.6527   -0.6846 O   0  0  0  0  0  0  0  0  0  0  0  0
   -1.3071    0.7983    1.3312 O   0  0  0  0  0  0  0  0  0  0  0  0
   -1.6993   -1.7291    0.0561 O   0  0  0  0  0  0  0  0  0  0  0  0
    1.2760   -2.0279   -0.6861 O   0  0  0  0  0  0  0  0  0  0  0  0
    1.4687    0.8544    1.2757 O   0  0  0  0  0  0  0  0  0  0  0  0
    0.8365    0.8746   -2.0338 H   0  0  0  0  0  0  0  0  0  0  0  0
    1.3523    2.2587   -1.0409 H   0  0  0  0  0  0  0  0  0  0  0  0
   -0.3874    0.8937    1.6553 H   0  0  0  0  0  0  0  0  0  0  0  0
   -1.8792   -1.5275    0.9879 H   0  0  0  0  0  0  0  0  0  0  0  0
    1.1220   -1.9398   -1.6374 H   0  0  0  0  0  0  0  0  0  0  0  0
    2.0391    1.6362    1.3087 H   0  0  0  0  0  0  0  0  0  0  0  0
  1  2  1  0  0  0  0
  2  3  1  0  0  0  0
  2  4  1  0  0  0  0
  4  5  1  0  0  0  0
  4  6  1  0  0  0  0
  6  7  1  0  0  0  0
  6  8  1  0  0  0  0
  8  9  1  0  0  0  0
  1 10  1  0  0  0  0
  8 10  1  0  0  0  0
  8 11  1  0  0  0  0
  6 12  1  0  0  0  0
  4 13  1  0  0  0  0
  2 14  1  0  0  0  0
  1 15  1  0  0  0  0
  1 16  1  0  0  0  0
 11 17  1  0  0  0  0
 12 18  1  0  0  0  0
 13 19  1  0  0  0  0
 14 20  1  0  0  0  0
M  END
