 xtb: 6.7.1 (edcfbbe)
          04092509473D

 38 37  0     0  0            999 V2000
    1.2453   -3.5140   -2.3178 C   0  0  0  0  0  0  0  0  0  0  0  0
    2.5007   -2.6580   -2.3678 C   0  0  0  0  0  0  0  0  0  0  0  0
    2.3721   -1.5133   -1.5041 O   0  0  0  0  0  0  0  0  0  0  0  0
    2.6729   -1.6549   -0.2271 C   0  0  0  0  0  0  0  0  0  0  0  0
    3.1072   -2.6680    0.2702 O   0  0  0  0  0  0  0  0  0  0  0  0
    2.4275   -0.3725    0.5498 C   0  0  0  0  0  0  0  0  0  0  0  0
    1.0518    0.2002    0.2219 C   0  0  0  0  0  0  0  0  0  0  0  0
    0.9652    0.3835   -0.8543 H   0  0  0  0  0  0  0  0  0  0  0  0
    0.7885    1.5146    0.9397 C   0  0  0  0  0  0  0  0  0  0  0  0
   -0.1646    1.6978    1.6649 O   0  0  0  0  0  0  0  0  0  0  0  0
    1.7242    2.3867    0.6591 O   0  0  0  0  0  0  0  0  0  0  0  0
    1.6368    3.7220    1.2025 C   0  0  0  0  0  0  0  0  0  0  0  0
    0.7760    4.6149    0.3245 C   0  0  0  0  0  0  0  0  0  0  0  0
   -0.2279   -1.0168    0.6905 S   0  0  0  0  0  0  0  0  0  0  0  0
   -1.9393    0.0317    0.0079 P   0  0  0  0  0  0  0  0  0  0  0  0
   -1.6437    1.3737   -1.3809 S   0  0  0  0  0  0  0  0  0  0  0  0
   -2.9015   -1.1782   -0.4286 O   0  0  0  0  0  0  0  0  0  0  0  0
   -2.6243   -2.0095   -1.5602 C   0  0  0  0  0  0  0  0  0  0  0  0
   -2.7585    0.5829    1.2385 O   0  0  0  0  0  0  0  0  0  0  0  0
   -3.0068   -0.2147    2.4119 C   0  0  0  0  0  0  0  0  0  0  0  0
    1.3553   -4.3539   -2.9955 H   0  0  0  0  0  0  0  0  0  0  0  0
    1.0918   -3.8896   -1.3083 H   0  0  0  0  0  0  0  0  0  0  0  0
    0.3809   -2.9257   -2.6148 H   0  0  0  0  0  0  0  0  0  0  0  0
    2.6550   -2.2347   -3.3604 H   0  0  0  0  0  0  0  0  0  0  0  0
    3.3763   -3.2337   -2.0555 H   0  0  0  0  0  0  0  0  0  0  0  0
    3.1879    0.3588    0.2706 H   0  0  0  0  0  0  0  0  0  0  0  0
    2.5119   -0.6002    1.6130 H   0  0  0  0  0  0  0  0  0  0  0  0
    1.2316    3.6624    2.2159 H   0  0  0  0  0  0  0  0  0  0  0  0
    2.6711    4.0668    1.2225 H   0  0  0  0  0  0  0  0  0  0  0  0
    0.7678    5.6195    0.7347 H   0  0  0  0  0  0  0  0  0  0  0  0
    1.1706    4.6433   -0.6875 H   0  0  0  0  0  0  0  0  0  0  0  0
   -0.2447    4.2390    0.2881 H   0  0  0  0  0  0  0  0  0  0  0  0
   -1.7734   -2.6566   -1.3464 H   0  0  0  0  0  0  0  0  0  0  0  0
   -2.4199   -1.3948   -2.4380 H   0  0  0  0  0  0  0  0  0  0  0  0
   -3.5223   -2.6031   -1.7148 H   0  0  0  0  0  0  0  0  0  0  0  0
   -3.5134   -1.1384    2.1376 H   0  0  0  0  0  0  0  0  0  0  0  0
   -3.6375    0.4023    3.0460 H   0  0  0  0  0  0  0  0  0  0  0  0
   -2.0619   -0.4332    2.9092 H   0  0  0  0  0  0  0  0  0  0  0  0
  1  2  1  0  0  0  0
  2  3  1  0  0  0  0
  3  4  1  0  0  0  0
  4  5  2  0  0  0  0
  4  6  1  0  0  0  0
  6  7  1  0  0  0  0
  7  8  1  0  0  0  0
  7  9  1  0  0  0  0
  9 10  2  0  0  0  0
  9 11  4  0  0  0  0
 11 12  1  0  0  0  0
 12 13  1  0  0  0  0
  7 14  1  0  0  0  0
 14 15  1  0  0  0  0
 15 16  2  0  0  0  0
 15 17  1  0  0  0  0
 17 18  1  0  0  0  0
 15 19  2  0  0  0  0
 19 20  1  0  0  0  0
  1 21  1  0  0  0  0
  1 22  1  0  0  0  0
  1 23  1  0  0  0  0
  2 24  1  0  0  0  0
  2 25  1  0  0  0  0
  6 26  1  0  0  0  0
  6 27  1  0  0  0  0
 12 28  1  0  0  0  0
 12 29  1  0  0  0  0
 13 30  1  0  0  0  0
 13 31  1  0  0  0  0
 13 32  1  0  0  0  0
 18 33  1  0  0  0  0
 18 34  1  0  0  0  0
 18 35  1  0  0  0  0
 20 36  1  0  0  0  0
 20 37  1  0  0  0  0
 20 38  1  0  0  0  0
M  END
