 xtb: 6.7.1 (edcfbbe)
          04092507313D

 38 37  0     0  0            999 V2000
    4.2642   -3.7605   -1.0053 C   0  0  0  0  0  0  0  0  0  0  0  0
    2.7514   -3.7292   -0.8562 C   0  0  0  0  0  0  0  0  0  0  0  0
    2.3148   -2.4833   -0.2780 O   0  0  0  0  0  0  0  0  0  0  0  0
    2.1299   -1.4530   -1.0776 C   0  0  0  0  0  0  0  0  0  0  0  0
    2.2543   -1.4795   -2.2816 O   0  0  0  0  0  0  0  0  0  0  0  0
    1.7270   -0.2148   -0.2982 C   0  0  0  0  0  0  0  0  0  0  0  0
    0.6633    0.5584   -1.0690 C   0  0  0  0  0  0  0  0  0  0  0  0
    1.0062    0.7006   -2.1000 H   0  0  0  0  0  0  0  0  0  0  0  0
    0.3498    1.9134   -0.4641 C   0  0  0  0  0  0  0  0  0  0  0  0
   -0.7881    2.2873   -0.2606 O   0  0  0  0  0  0  0  0  0  0  0  0
    1.4303    2.6060   -0.2357 O   0  0  0  0  0  0  0  0  0  0  0  0
    1.3049    3.8971    0.4014 C   0  0  0  0  0  0  0  0  0  0  0  0
    1.4689    3.7552    1.9053 C   0  0  0  0  0  0  0  0  0  0  0  0
   -0.8905   -0.3787   -1.2308 S   0  0  0  0  0  0  0  0  0  0  0  0
   -1.8329    0.0447    0.6364 P   0  0  0  0  0  0  0  0  0  0  0  0
   -0.7390    0.4634    2.2040 S   0  0  0  0  0  0  0  0  0  0  0  0
   -3.0635    1.0130    0.4389 O   0  0  0  0  0  0  0  0  0  0  0  0
   -4.0101    0.8658   -0.6356 C   0  0  0  0  0  0  0  0  0  0  0  0
   -2.6375   -1.3377    0.8255 O   0  0  0  0  0  0  0  0  0  0  0  0
   -1.9583   -2.5540    1.1431 C   0  0  0  0  0  0  0  0  0  0  0  0
    4.5863   -3.0006   -1.7135 H   0  0  0  0  0  0  0  0  0  0  0  0
    4.7387   -3.5756   -0.0455 H   0  0  0  0  0  0  0  0  0  0  0  0
    4.5678   -4.7351   -1.3730 H   0  0  0  0  0  0  0  0  0  0  0  0
    2.4053   -4.4893   -0.1560 H   0  0  0  0  0  0  0  0  0  0  0  0
    2.2637   -3.8512   -1.8275 H   0  0  0  0  0  0  0  0  0  0  0  0
    2.6082    0.4219   -0.1894 H   0  0  0  0  0  0  0  0  0  0  0  0
    1.3789   -0.5022    0.6952 H   0  0  0  0  0  0  0  0  0  0  0  0
    2.1042    4.4966   -0.0346 H   0  0  0  0  0  0  0  0  0  0  0  0
    0.3274    4.3172    0.1512 H   0  0  0  0  0  0  0  0  0  0  0  0
    0.7013    3.0959    2.3072 H   0  0  0  0  0  0  0  0  0  0  0  0
    2.4427    3.3366    2.1413 H   0  0  0  0  0  0  0  0  0  0  0  0
    1.3744    4.7307    2.3702 H   0  0  0  0  0  0  0  0  0  0  0  0
   -3.5044    0.9919   -1.5928 H   0  0  0  0  0  0  0  0  0  0  0  0
   -4.7370    1.6586   -0.4797 H   0  0  0  0  0  0  0  0  0  0  0  0
   -4.4831   -0.1135   -0.5850 H   0  0  0  0  0  0  0  0  0  0  0  0
   -2.7365   -3.2650    1.4080 H   0  0  0  0  0  0  0  0  0  0  0  0
   -1.2824   -2.3967    1.9857 H   0  0  0  0  0  0  0  0  0  0  0  0
   -1.3969   -2.9040    0.2764 H   0  0  0  0  0  0  0  0  0  0  0  0
  1  2  1  0  0  0  0
  2  3  1  0  0  0  0
  3  4  1  0  0  0  0
  4  5  2  0  0  0  0
  4  6  1  0  0  0  0
  6  7  1  0  0  0  0
  7  8  1  0  0  0  0
  7  9  1  0  0  0  0
  9 10  2  0  0  0  0
  9 11  4  0  0  0  0
 11 12  1  0  0  0  0
 12 13  1  0  0  0  0
  7 14  1  0  0  0  0
 14 15  1  0  0  0  0
 15 16  2  0  0  0  0
 15 17  2  0  0  0  0
 17 18  1  0  0  0  0
 15 19  1  0  0  0  0
 19 20  1  0  0  0  0
  1 21  1  0  0  0  0
  1 22  1  0  0  0  0
  1 23  1  0  0  0  0
  2 24  1  0  0  0  0
  2 25  1  0  0  0  0
  6 26  1  0  0  0  0
  6 27  1  0  0  0  0
 12 28  1  0  0  0  0
 12 29  1  0  0  0  0
 13 30  1  0  0  0  0
 13 31  1  0  0  0  0
 13 32  1  0  0  0  0
 18 33  1  0  0  0  0
 18 34  1  0  0  0  0
 18 35  1  0  0  0  0
 20 36  1  0  0  0  0
 20 37  1  0  0  0  0
 20 38  1  0  0  0  0
M  END
