 xtb: 6.7.1 (edcfbbe)
          04092507313D

 38 37  0     0  0            999 V2000
    3.0779   -3.2848    1.2116 C   0  0  0  0  0  0  0  0  0  0  0  0
    2.9289   -1.7804    1.3457 C   0  0  0  0  0  0  0  0  0  0  0  0
    2.6016   -1.2339    0.0532 O   0  0  0  0  0  0  0  0  0  0  0  0
    1.6203   -0.3822   -0.0649 C   0  0  0  0  0  0  0  0  0  0  0  0
    0.9783    0.0904    0.8614 O   0  0  0  0  0  0  0  0  0  0  0  0
    1.3813    0.0281   -1.5005 C   0  0  0  0  0  0  0  0  0  0  0  0
    0.2778    1.0737   -1.5511 C   0  0  0  0  0  0  0  0  0  0  0  0
    0.2957    1.6005   -2.5095 H   0  0  0  0  0  0  0  0  0  0  0  0
    0.4190    2.1077   -0.4391 C   0  0  0  0  0  0  0  0  0  0  0  0
   -0.5135    2.5368    0.2016 O   0  0  0  0  0  0  0  0  0  0  0  0
    1.6623    2.5290   -0.3530 O   0  0  0  0  0  0  0  0  0  0  0  0
    1.9918    3.5545    0.6071 C   0  0  0  0  0  0  0  0  0  0  0  0
    2.6924    4.6981   -0.1055 C   0  0  0  0  0  0  0  0  0  0  0  0
   -1.4119    0.3895   -1.5124 S   0  0  0  0  0  0  0  0  0  0  0  0
   -1.5860   -0.9623    0.1182 P   0  0  0  0  0  0  0  0  0  0  0  0
   -0.4695   -2.5698    0.1410 S   0  0  0  0  0  0  0  0  0  0  0  0
   -1.6693   -0.2314    1.5144 O   0  0  0  0  0  0  0  0  0  0  0  0
   -2.6056    0.8215    1.8144 C   0  0  0  0  0  0  0  0  0  0  0  0
   -3.1341   -1.3267   -0.0941 O   0  0  0  0  0  0  0  0  0  0  0  0
   -3.5680   -2.1450   -1.1854 C   0  0  0  0  0  0  0  0  0  0  0  0
    3.3650   -3.7033    2.1702 H   0  0  0  0  0  0  0  0  0  0  0  0
    2.1327   -3.7223    0.8981 H   0  0  0  0  0  0  0  0  0  0  0  0
    3.8369   -3.5169    0.4712 H   0  0  0  0  0  0  0  0  0  0  0  0
    3.8667   -1.3121    1.6556 H   0  0  0  0  0  0  0  0  0  0  0  0
    2.1339   -1.5147    2.0487 H   0  0  0  0  0  0  0  0  0  0  0  0
    1.1224   -0.8550   -2.0876 H   0  0  0  0  0  0  0  0  0  0  0  0
    2.3119    0.4404   -1.8938 H   0  0  0  0  0  0  0  0  0  0  0  0
    1.0702    3.8825    1.0954 H   0  0  0  0  0  0  0  0  0  0  0  0
    2.6458    3.0835    1.3453 H   0  0  0  0  0  0  0  0  0  0  0  0
    3.5748    4.3304   -0.6204 H   0  0  0  0  0  0  0  0  0  0  0  0
    2.0253    5.1570   -0.8300 H   0  0  0  0  0  0  0  0  0  0  0  0
    2.9882    5.4428    0.6259 H   0  0  0  0  0  0  0  0  0  0  0  0
   -3.5960    0.5604    1.4474 H   0  0  0  0  0  0  0  0  0  0  0  0
   -2.2583    1.7507    1.3630 H   0  0  0  0  0  0  0  0  0  0  0  0
   -2.6004    0.8993    2.8984 H   0  0  0  0  0  0  0  0  0  0  0  0
   -2.9051   -3.0051   -1.2933 H   0  0  0  0  0  0  0  0  0  0  0  0
   -3.5755   -1.5609   -2.1047 H   0  0  0  0  0  0  0  0  0  0  0  0
   -4.5723   -2.4700   -0.9259 H   0  0  0  0  0  0  0  0  0  0  0  0
  1  2  1  0  0  0  0
  2  3  1  0  0  0  0
  3  4  4  0  0  0  0
  4  5  2  0  0  0  0
  4  6  1  0  0  0  0
  6  7  1  0  0  0  0
  7  8  1  0  0  0  0
  7  9  1  0  0  0  0
  9 10  2  0  0  0  0
  9 11  1  0  0  0  0
 11 12  1  0  0  0  0
 12 13  1  0  0  0  0
  7 14  1  0  0  0  0
 14 15  1  0  0  0  0
 15 16  2  0  0  0  0
 15 17  2  0  0  0  0
 17 18  1  0  0  0  0
 15 19  1  0  0  0  0
 19 20  1  0  0  0  0
  1 21  1  0  0  0  0
  1 22  1  0  0  0  0
  1 23  1  0  0  0  0
  2 24  1  0  0  0  0
  2 25  1  0  0  0  0
  6 26  1  0  0  0  0
  6 27  1  0  0  0  0
 12 28  1  0  0  0  0
 12 29  1  0  0  0  0
 13 30  1  0  0  0  0
 13 31  1  0  0  0  0
 13 32  1  0  0  0  0
 18 33  1  0  0  0  0
 18 34  1  0  0  0  0
 18 35  1  0  0  0  0
 20 36  1  0  0  0  0
 20 37  1  0  0  0  0
 20 38  1  0  0  0  0
M  END
