 xtb: 6.7.1 (edcfbbe)
          04092505213D

 41 40  0     0  0            999 V2000
    3.6235    0.2352   -2.6924 C   0  0  0  0  0  0  0  0  0  0  0  0
    2.1518    0.4708   -2.4284 C   0  0  0  0  0  0  0  0  0  0  0  0
    1.6118   -0.4671   -1.4786 O   0  0  0  0  0  0  0  0  0  0  0  0
    2.0907   -0.5144    0.0334 P   0  0  0  0  0  0  0  0  0  0  0  0
    2.6124    1.1712    0.8952 S   0  0  0  0  0  0  0  0  0  0  0  0
    3.2635   -1.5854   -0.0721 O   0  0  0  0  0  0  0  0  0  0  0  0
    4.2384   -1.7736    0.9667 C   0  0  0  0  0  0  0  0  0  0  0  0
    3.6295   -2.3448    2.2313 C   0  0  0  0  0  0  0  0  0  0  0  0
    0.5074   -1.6162    0.8812 S   0  0  0  0  0  0  0  0  0  0  0  0
   -0.3028   -0.3279    1.8996 C   0  0  0  0  0  0  0  0  0  0  0  0
   -2.0935   -0.2725    1.6645 S   0  0  0  0  0  0  0  0  0  0  0  0
   -2.2075    0.6878   -0.2305 P   0  0  0  0  0  0  0  0  0  0  0  0
   -0.6118    1.7333   -0.7156 S   0  0  0  0  0  0  0  0  0  0  0  0
   -3.5568    1.4990   -0.1526 O   0  0  0  0  0  0  0  0  0  0  0  0
   -3.6612    2.6773    0.6746 C   0  0  0  0  0  0  0  0  0  0  0  0
   -4.8518    3.4791    0.1897 C   0  0  0  0  0  0  0  0  0  0  0  0
   -2.7209   -0.3500   -1.3038 O   0  0  0  0  0  0  0  0  0  0  0  0
   -1.9030   -1.3746   -1.8997 C   0  0  0  0  0  0  0  0  0  0  0  0
   -2.1848   -2.7200   -1.2591 C   0  0  0  0  0  0  0  0  0  0  0  0
    3.9536    0.8934   -3.4899 H   0  0  0  0  0  0  0  0  0  0  0  0
    4.2006    0.4516   -1.7940 H   0  0  0  0  0  0  0  0  0  0  0  0
    3.7909   -0.7996   -2.9797 H   0  0  0  0  0  0  0  0  0  0  0  0
    1.5475    0.3122   -3.3230 H   0  0  0  0  0  0  0  0  0  0  0  0
    1.9754    1.4828   -2.0478 H   0  0  0  0  0  0  0  0  0  0  0  0
    4.9632   -2.4576    0.5234 H   0  0  0  0  0  0  0  0  0  0  0  0
    4.7124   -0.8086    1.1733 H   0  0  0  0  0  0  0  0  0  0  0  0
    2.9698   -1.6090    2.6896 H   0  0  0  0  0  0  0  0  0  0  0  0
    3.0563   -3.2402    2.0047 H   0  0  0  0  0  0  0  0  0  0  0  0
    4.4218   -2.5896    2.9314 H   0  0  0  0  0  0  0  0  0  0  0  0
    0.1407    0.6397    1.6511 H   0  0  0  0  0  0  0  0  0  0  0  0
   -0.1530   -0.5744    2.9473 H   0  0  0  0  0  0  0  0  0  0  0  0
   -3.7926    2.3554    1.7113 H   0  0  0  0  0  0  0  0  0  0  0  0
   -2.7317    3.2520    0.5911 H   0  0  0  0  0  0  0  0  0  0  0  0
   -4.6995    3.7872   -0.8409 H   0  0  0  0  0  0  0  0  0  0  0  0
   -5.7510    2.8729    0.2458 H   0  0  0  0  0  0  0  0  0  0  0  0
   -4.9683    4.3586    0.8144 H   0  0  0  0  0  0  0  0  0  0  0  0
   -2.1834   -1.3745   -2.9551 H   0  0  0  0  0  0  0  0  0  0  0  0
   -0.8455   -1.1014   -1.8121 H   0  0  0  0  0  0  0  0  0  0  0  0
   -1.6250   -3.4867   -1.7849 H   0  0  0  0  0  0  0  0  0  0  0  0
   -1.8827   -2.7214   -0.2140 H   0  0  0  0  0  0  0  0  0  0  0  0
   -3.2466   -2.9402   -1.3199 H   0  0  0  0  0  0  0  0  0  0  0  0
  1  2  1  0  0  0  0
  2  3  1  0  0  0  0
  3  4  2  0  0  0  0
  4  5  2  0  0  0  0
  4  6  2  0  0  0  0
  6  7  1  0  0  0  0
  7  8  1  0  0  0  0
  4  9  1  0  0  0  0
  9 10  1  0  0  0  0
 10 11  1  0  0  0  0
 11 12  1  0  0  0  0
 12 13  2  0  0  0  0
 12 14  2  0  0  0  0
 14 15  1  0  0  0  0
 15 16  1  0  0  0  0
 12 17  2  0  0  0  0
 17 18  1  0  0  0  0
 18 19  1  0  0  0  0
  1 20  1  0  0  0  0
  1 21  1  0  0  0  0
  1 22  1  0  0  0  0
  2 23  1  0  0  0  0
  2 24  1  0  0  0  0
  7 25  1  0  0  0  0
  7 26  1  0  0  0  0
  8 27  1  0  0  0  0
  8 28  1  0  0  0  0
  8 29  1  0  0  0  0
 10 30  1  0  0  0  0
 10 31  1  0  0  0  0
 15 32  1  0  0  0  0
 15 33  1  0  0  0  0
 16 34  1  0  0  0  0
 16 35  1  0  0  0  0
 16 36  1  0  0  0  0
 18 37  1  0  0  0  0
 18 38  1  0  0  0  0
 19 39  1  0  0  0  0
 19 40  1  0  0  0  0
 19 41  1  0  0  0  0
M  END
