  20
 
 C         -2.3741527531        0.0002032969        0.0126508391
 N         -0.9589070302        0.0011030380       -0.2886996457
 C         -0.3059581889        1.1939837735        0.2238206901
 C          1.1502033195        1.2400577276       -0.2280309526
 C          1.8880454153       -0.0003503850        0.2628929372
 C          1.1500496455       -1.2389163084       -0.2324195956
 C         -0.3062897025       -1.1940362722        0.2189569622
 H         -2.8312030865        0.8887674886       -0.4197484205
 H         -2.5776588437       -0.0073031257        1.0964754238
 H         -2.8325641831       -0.8814220599       -0.4323549772
 H         -0.8419772466        2.0651032173       -0.1618200748
 H         -0.3507438315        1.2287070698        1.3300610236
 H          1.1773231858        1.2699771527       -1.3178297565
 H          1.6203965024        2.1462634362        0.1562265451
 H          2.9167601758        0.0002186355       -0.0998107818
 H          1.9135274390       -0.0022526630        1.3556657700
 H          1.1777382033       -1.2653654477       -1.3223073363
 H          1.6198109269       -2.1465003719        0.1491643183
 H         -0.8425508371       -2.0633749049       -0.1703524748
 H         -0.3515648123       -1.2332056053        1.3250521297
          20
        -22.41402609
 C         -2.3823441633       -0.0000739957        0.0066545885
 N         -0.9669029022       -0.0001078410       -0.2932185274
 C         -0.3142534412        1.1935484616        0.2174844040
 C          1.1412089162        1.2400150824       -0.2362769555
 C          1.8807799089        0.0003393765        0.2542874265
 C          1.1418010524       -1.2398452538       -0.2360163844
 C         -0.3139443112       -1.1938291536        0.2171966633
 H         -2.8393014051       -0.8860755715       -0.4309347128
 H         -2.8397861343        0.8841431478       -0.4340929546
 H         -2.5870056081        0.0018683722        1.0903467055
 H         -0.8513223068        2.0639236557       -0.1680625868
 H         -0.3577813731        1.2288630937        1.3238915262
 H          1.1667856741        1.2693298385       -1.3260954381
 H          1.6114588293        2.1466343369        0.1470781713
 H          2.9080106929        0.0005993279       -0.1125910836
 H          1.9106384735        0.0004371038        1.3469663492
 H          1.1681567954       -1.2697932472       -1.3257908021
 H          1.6122111524       -2.1460760281        0.1481699293
 H         -0.8504941955       -2.0641977834       -0.1690577019
 H         -0.3576946046       -1.2299989500        1.3236167994
