 xtb: 6.7.1 (edcfbbe)
          04112505053D

 41 40  0     0  0            999 V2000
    3.4270   -2.1773    1.8113 C   0  0  0  0  0  0  0  0  0  0  0  0
    2.0504   -2.0923    1.1846 C   0  0  0  0  0  0  0  0  0  0  0  0
    1.6852   -0.7252    0.9129 O   0  0  0  0  0  0  0  0  0  0  0  0
    2.3540    0.1042   -0.2812 P   0  0  0  0  0  0  0  0  0  0  0  0
    3.0486   -0.9575   -1.7643 S   0  0  0  0  0  0  0  0  0  0  0  0
    3.4725    1.0197    0.3642 O   0  0  0  0  0  0  0  0  0  0  0  0
    3.2158    1.8901    1.4952 C   0  0  0  0  0  0  0  0  0  0  0  0
    4.4823    2.6756    1.7625 C   0  0  0  0  0  0  0  0  0  0  0  0
    0.7793    1.4602   -0.7119 S   0  0  0  0  0  0  0  0  0  0  0  0
   -0.0679    0.3748   -1.8864 C   0  0  0  0  0  0  0  0  0  0  0  0
   -0.9118   -1.0048   -1.0834 S   0  0  0  0  0  0  0  0  0  0  0  0
   -2.4635    0.1705   -0.1944 P   0  0  0  0  0  0  0  0  0  0  0  0
   -3.0825    1.6757   -1.2762 S   0  0  0  0  0  0  0  0  0  0  0  0
   -1.9576    0.6133    1.2256 O   0  0  0  0  0  0  0  0  0  0  0  0
   -1.5759   -0.3372    2.2555 C   0  0  0  0  0  0  0  0  0  0  0  0
   -0.5861    0.3483    3.1732 C   0  0  0  0  0  0  0  0  0  0  0  0
   -3.5529   -0.9265    0.1694 O   0  0  0  0  0  0  0  0  0  0  0  0
   -4.3587   -1.5527   -0.8515 C   0  0  0  0  0  0  0  0  0  0  0  0
   -5.5222   -2.2385   -0.1650 C   0  0  0  0  0  0  0  0  0  0  0  0
    4.1687   -1.7790    1.1188 H   0  0  0  0  0  0  0  0  0  0  0  0
    3.4621   -1.6060    2.7352 H   0  0  0  0  0  0  0  0  0  0  0  0
    3.6644   -3.2153    2.0219 H   0  0  0  0  0  0  0  0  0  0  0  0
    1.2723   -2.4492    1.8605 H   0  0  0  0  0  0  0  0  0  0  0  0
    2.0155   -2.6556    0.2471 H   0  0  0  0  0  0  0  0  0  0  0  0
    2.3808    2.5492    1.2410 H   0  0  0  0  0  0  0  0  0  0  0  0
    2.9398    1.2700    2.3514 H   0  0  0  0  0  0  0  0  0  0  0  0
    4.3203    3.3350    2.6090 H   0  0  0  0  0  0  0  0  0  0  0  0
    5.3023    1.9984    1.9833 H   0  0  0  0  0  0  0  0  0  0  0  0
    4.7441    3.2676    0.8903 H   0  0  0  0  0  0  0  0  0  0  0  0
    0.6594   -0.0531   -2.5770 H   0  0  0  0  0  0  0  0  0  0  0  0
   -0.8029    0.9905   -2.4063 H   0  0  0  0  0  0  0  0  0  0  0  0
   -2.4855   -0.6283    2.7834 H   0  0  0  0  0  0  0  0  0  0  0  0
   -1.1389   -1.2167    1.7732 H   0  0  0  0  0  0  0  0  0  0  0  0
   -1.0210    1.2603    3.5715 H   0  0  0  0  0  0  0  0  0  0  0  0
   -0.3344   -0.3198    3.9906 H   0  0  0  0  0  0  0  0  0  0  0  0
    0.3156    0.6027    2.6224 H   0  0  0  0  0  0  0  0  0  0  0  0
   -4.6997   -0.7799   -1.5479 H   0  0  0  0  0  0  0  0  0  0  0  0
   -3.7310   -2.2682   -1.3894 H   0  0  0  0  0  0  0  0  0  0  0  0
   -6.1200   -1.5086    0.3735 H   0  0  0  0  0  0  0  0  0  0  0  0
   -6.1395   -2.7249   -0.9130 H   0  0  0  0  0  0  0  0  0  0  0  0
   -5.1544   -2.9811    0.5368 H   0  0  0  0  0  0  0  0  0  0  0  0
  1  2  1  0  0  0  0
  2  3  1  0  0  0  0
  3  4  1  0  0  0  0
  4  5  2  0  0  0  0
  4  6  2  0  0  0  0
  6  7  1  0  0  0  0
  7  8  1  0  0  0  0
  4  9  1  0  0  0  0
  9 10  1  0  0  0  0
 10 11  1  0  0  0  0
 11 12  1  0  0  0  0
 12 13  2  0  0  0  0
 12 14  2  0  0  0  0
 14 15  1  0  0  0  0
 15 16  1  0  0  0  0
 12 17  2  0  0  0  0
 17 18  1  0  0  0  0
 18 19  1  0  0  0  0
  1 20  1  0  0  0  0
  1 21  1  0  0  0  0
  1 22  1  0  0  0  0
  2 23  1  0  0  0  0
  2 24  1  0  0  0  0
  7 25  1  0  0  0  0
  7 26  1  0  0  0  0
  8 27  1  0  0  0  0
  8 28  1  0  0  0  0
  8 29  1  0  0  0  0
 10 30  1  0  0  0  0
 10 31  1  0  0  0  0
 15 32  1  0  0  0  0
 15 33  1  0  0  0  0
 16 34  1  0  0  0  0
 16 35  1  0  0  0  0
 16 36  1  0  0  0  0
 18 37  1  0  0  0  0
 18 38  1  0  0  0  0
 19 39  1  0  0  0  0
 19 40  1  0  0  0  0
 19 41  1  0  0  0  0
M  END
