20
 xtb: 6.7.1 (edcfbbe)
C            0.91377985748869        1.37913199204053       -0.60137220090460
C            1.61214424099254        0.15329570995758       -0.03365291722824
H            2.58324096789339        0.03858683846827       -0.52743366981887
C            0.77841620906860       -1.11029237309198       -0.28857506009838
H            1.20239785911543       -1.94158806486301        0.29138706738661
C           -0.68283416691300       -0.90625810716044        0.13951607417073
H           -1.29212554366600       -1.73867289797636       -0.24404192850234
C           -1.22795355486536        0.39778477305825       -0.43692357133825
H           -1.25569554281483        0.33738248443817       -1.53682219069402
O           -0.41171198152935        1.50854704182326       -0.05202059764865
O           -2.51047934879697        0.60156114230076        0.09838488536249
O           -0.70261547093460       -0.88605969761538        1.57321327315573
O            0.84852435252092       -1.37792042956967       -1.69203926194130
O            1.87633639356015        0.30581999126072        1.36705834047444
H            0.86291076905608        1.31541435467068       -1.69805502413363
H            1.45335999408441        2.28698146405676       -0.32205706268497
H           -2.92415548769420        1.33132554462148       -0.38202424898423
H           -1.57720774604721       -0.57713029511106        1.84930904508078
H            0.35691465598551       -2.19290090817000       -1.86184537873713
H            1.02073620225357        0.23026714148064        1.82046101010571
