 xtb: 6.7.1 (edcfbbe)
          04092505213D

 41 40  0     0  0            999 V2000
    2.8380    2.1645   -1.7118 C   0  0  0  0  0  0  0  0  0  0  0  0
    3.1630    0.7062   -1.9555 C   0  0  0  0  0  0  0  0  0  0  0  0
    2.2695   -0.1845   -1.2550 O   0  0  0  0  0  0  0  0  0  0  0  0
    2.1019   -0.2657    0.3163 P   0  0  0  0  0  0  0  0  0  0  0  0
    1.1040    1.1460    1.2510 S   0  0  0  0  0  0  0  0  0  0  0  0
    3.6069   -0.4005    0.8060 O   0  0  0  0  0  0  0  0  0  0  0  0
    3.9801   -0.2368    2.1851 C   0  0  0  0  0  0  0  0  0  0  0  0
    3.4808   -1.3826    3.0406 C   0  0  0  0  0  0  0  0  0  0  0  0
    1.3279   -2.2293    0.4367 S   0  0  0  0  0  0  0  0  0  0  0  0
   -0.2722   -1.9740   -0.3737 C   0  0  0  0  0  0  0  0  0  0  0  0
   -1.5015   -1.1671    0.7018 S   0  0  0  0  0  0  0  0  0  0  0  0
   -2.1315    0.3632   -0.6438 P   0  0  0  0  0  0  0  0  0  0  0  0
   -0.8124    1.0182   -1.9296 S   0  0  0  0  0  0  0  0  0  0  0  0
   -2.8861    1.3860    0.3053 O   0  0  0  0  0  0  0  0  0  0  0  0
   -2.3008    2.2084    1.3313 C   0  0  0  0  0  0  0  0  0  0  0  0
   -1.7065    3.4749    0.7504 C   0  0  0  0  0  0  0  0  0  0  0  0
   -3.3428   -0.2391   -1.4530 O   0  0  0  0  0  0  0  0  0  0  0  0
   -4.5114   -0.8379   -0.8368 C   0  0  0  0  0  0  0  0  0  0  0  0
   -4.4972   -2.3396   -1.0429 C   0  0  0  0  0  0  0  0  0  0  0  0
    3.0008    2.4201   -0.6656 H   0  0  0  0  0  0  0  0  0  0  0  0
    3.4745    2.7855   -2.3338 H   0  0  0  0  0  0  0  0  0  0  0  0
    1.7953    2.3569   -1.9583 H   0  0  0  0  0  0  0  0  0  0  0  0
    4.1850    0.4718   -1.6487 H   0  0  0  0  0  0  0  0  0  0  0  0
    3.0128    0.4378   -3.0025 H   0  0  0  0  0  0  0  0  0  0  0  0
    5.0696   -0.1937    2.1592 H   0  0  0  0  0  0  0  0  0  0  0  0
    3.5754    0.7157    2.5430 H   0  0  0  0  0  0  0  0  0  0  0  0
    3.8008   -2.3337    2.6229 H   0  0  0  0  0  0  0  0  0  0  0  0
    3.8716   -1.2781    4.0475 H   0  0  0  0  0  0  0  0  0  0  0  0
    2.3921   -1.3678    3.0800 H   0  0  0  0  0  0  0  0  0  0  0  0
   -0.6325   -2.9678   -0.6254 H   0  0  0  0  0  0  0  0  0  0  0  0
   -0.1343   -1.3584   -1.2659 H   0  0  0  0  0  0  0  0  0  0  0  0
   -3.1369    2.4299    1.9973 H   0  0  0  0  0  0  0  0  0  0  0  0
   -1.5403    1.6372    1.8697 H   0  0  0  0  0  0  0  0  0  0  0  0
   -2.4502    4.0066    0.1629 H   0  0  0  0  0  0  0  0  0  0  0  0
   -1.3578    4.1080    1.5595 H   0  0  0  0  0  0  0  0  0  0  0  0
   -0.8601    3.2314    0.1114 H   0  0  0  0  0  0  0  0  0  0  0  0
   -4.5305   -0.5805    0.2240 H   0  0  0  0  0  0  0  0  0  0  0  0
   -5.3601   -0.3748   -1.3422 H   0  0  0  0  0  0  0  0  0  0  0  0
   -5.4362   -2.7537   -0.6897 H   0  0  0  0  0  0  0  0  0  0  0  0
   -4.3790   -2.5679   -2.0985 H   0  0  0  0  0  0  0  0  0  0  0  0
   -3.6797   -2.7929   -0.4878 H   0  0  0  0  0  0  0  0  0  0  0  0
  1  2  1  0  0  0  0
  2  3  1  0  0  0  0
  3  4  2  0  0  0  0
  4  5  2  0  0  0  0
  4  6  2  0  0  0  0
  6  7  1  0  0  0  0
  7  8  1  0  0  0  0
  4  9  1  0  0  0  0
  9 10  1  0  0  0  0
 10 11  1  0  0  0  0
 11 12  1  0  0  0  0
 12 13  2  0  0  0  0
 12 14  2  0  0  0  0
 14 15  1  0  0  0  0
 15 16  1  0  0  0  0
 12 17  2  0  0  0  0
 17 18  1  0  0  0  0
 18 19  1  0  0  0  0
  1 20  1  0  0  0  0
  1 21  1  0  0  0  0
  1 22  1  0  0  0  0
  2 23  1  0  0  0  0
  2 24  1  0  0  0  0
  7 25  1  0  0  0  0
  7 26  1  0  0  0  0
  8 27  1  0  0  0  0
  8 28  1  0  0  0  0
  8 29  1  0  0  0  0
 10 30  1  0  0  0  0
 10 31  1  0  0  0  0
 15 32  1  0  0  0  0
 15 33  1  0  0  0  0
 16 34  1  0  0  0  0
 16 35  1  0  0  0  0
 16 36  1  0  0  0  0
 18 37  1  0  0  0  0
 18 38  1  0  0  0  0
 19 39  1  0  0  0  0
 19 40  1  0  0  0  0
 19 41  1  0  0  0  0
M  END
