41
 xtb: 6.7.1 (edcfbbe)
C            2.86792291382229       -1.41192177463633        3.12553138397121
C            1.59828666994683       -1.47878479683503        2.31418424911311
O            1.49099932042350       -0.34687700051051        1.38194984046709
P            2.34624839498654       -0.27110535991663        0.02677006935233
S            2.85165166481710       -1.95388764700377       -0.81269217361531
O            3.53902336832779        0.71029443110197        0.49048418672857
C            4.67309790160549        0.98103032262664       -0.40521603905020
C            5.57498914871856        1.95667622537678        0.30466174402600
S            1.18606466623487        1.05546563415866       -1.15027665136219
C            0.12837621524186       -0.12949302013014       -2.07019194205794
S           -1.01808214233509       -1.17399766677312       -1.08841258955740
P           -2.30336905579446        0.28846287221713       -0.25477375031647
S           -2.70317930207274        1.83045630226084       -1.37412289602679
O           -1.61368585092020        0.56709372954087        1.16758144065659
C           -1.90245273952100        1.78200032738858        1.94671764007077
C           -3.27030844203086        1.72906425806832        2.58050462681550
O           -3.54535417283207       -0.63553822455569        0.19827686600879
C           -4.57115125006303       -1.03923302418581       -0.77396215853887
C           -5.54587814624412       -1.92721172728986       -0.04537587461480
H            2.85217829667207       -2.21571699776576        3.86889393141228
H            3.75324979696163       -1.54733602920089        2.49692718394351
H            2.94599848084919       -0.45627163995850        3.65166329751146
H            0.70903035655661       -1.37649946488302        2.93952954993082
H            1.52493440429551       -2.40633534190417        1.73825556054620
H            5.17773360893045        0.03229818927609       -0.61024789819830
H            4.28660010132869        1.39473144348107       -1.34279206835823
H            6.43564828206432        2.17206791412887       -0.33569143545063
H            5.05359806299791        2.89559309712849        0.51062553615511
H            5.94125559665866        1.53599989092463        1.24549212119999
H            0.75958021602349       -0.83317699521779       -2.62067472231651
H           -0.44310327350477        0.47966168509130       -2.77652751450103
H           -1.10869226388715        1.79518133824595        2.69623003935307
H           -1.78587244216903        2.64782385679834        1.28773946556833
H           -3.38498234907063        0.82790574267534        3.18956607153374
H           -3.38795805444822        2.60262449023911        3.23009730782474
H           -4.06432506333214        1.75573095771047        1.82832625800608
H           -5.05066402607003       -0.13366230384545       -1.15723660012197
H           -4.08179527065211       -1.56659065463529       -1.59985724422410
H           -5.05061098102869       -2.82429214507686        0.33661847511790
H           -6.01228932725741       -1.39288180324109        0.78725704631570
H           -6.33162143407658       -2.23543097203571       -0.74162189777761
