 xtb: 6.7.1 (edcfbbe)
          04032520223D

 16 16  0     0  0            999 V2000
   -1.4803   -0.0017   -0.2439 C   0  0  0  0  0  0  0  0  0  0  0  0
   -0.7323   -1.2446    0.2359 C   0  0  0  0  0  0  0  0  0  0  0  0
    0.7233   -1.1713   -0.2248 C   0  0  0  0  0  0  0  0  0  0  0  0
    1.3673    0.0016    0.2396 O   0  0  0  0  0  0  0  0  0  0  0  0
    0.7204    1.1729   -0.2248 C   0  0  0  0  0  0  0  0  0  0  0  0
   -0.7354    1.2430    0.2359 C   0  0  0  0  0  0  0  0  0  0  0  0
   -2.5019   -0.0029    0.1375 H   0  0  0  0  0  0  0  0  0  0  0  0
   -1.5232   -0.0018   -1.3357 H   0  0  0  0  0  0  0  0  0  0  0  0
   -0.7552   -1.2869    1.3263 H   0  0  0  0  0  0  0  0  0  0  0  0
   -1.1898   -2.1515   -0.1589 H   0  0  0  0  0  0  0  0  0  0  0  0
    1.3091   -2.0004    0.1757 H   0  0  0  0  0  0  0  0  0  0  0  0
    0.7672   -1.1983   -1.3249 H   0  0  0  0  0  0  0  0  0  0  0  0
    1.3042    2.0035    0.1757 H   0  0  0  0  0  0  0  0  0  0  0  0
    0.7644    1.2005   -1.3248 H   0  0  0  0  0  0  0  0  0  0  0  0
   -0.7584    1.2851    1.3263 H   0  0  0  0  0  0  0  0  0  0  0  0
   -1.1950    2.1487   -0.1589 H   0  0  0  0  0  0  0  0  0  0  0  0
  1  2  1  0  0  0  0
  2  3  1  0  0  0  0
  3  4  1  0  0  0  0
  4  5  1  0  0  0  0
  1  6  1  0  0  0  0
  5  6  1  0  0  0  0
  1  7  1  0  0  0  0
  1  8  1  0  0  0  0
  2  9  1  0  0  0  0
  2 10  1  0  0  0  0
  3 11  1  0  0  0  0
  3 12  1  0  0  0  0
  5 13  1  0  0  0  0
  5 14  1  0  0  0  0
  6 15  1  0  0  0  0
  6 16  1  0  0  0  0
M  END
