  28
 
 C          5.0792777835        0.3661386315        0.0004723386
 C          3.8095024613       -0.4768140999        0.0026803417
 C          2.5491778425        0.3858944847        0.0008780667
 C          1.2792402474       -0.4616602716        0.0027766141
 C          0.0108368353        0.3886706261        0.0015251041
 C         -1.2483414139       -0.4758464076        0.0003540117
 C         -2.5256762907        0.3588092027        0.0018860159
 C         -3.7828569151       -0.5227139999        0.0017822645
 N         -5.0432224435        0.2044723953        0.0007995435
 H          5.9602602134       -0.2708449010        0.0013078550
 H          5.1137333497        1.0001539605       -0.8825524168
 H          5.1145456264        1.0036136333        0.8809632290
 H          3.8026128187       -1.1199730429        0.8855465433
 H          3.8023178783       -1.1241046972       -0.8771577750
 H          2.5540531735        1.0332344681        0.8809693580
 H          2.5538325496        1.0293083984       -0.8821009281
 H          1.2779583108       -1.1089243461       -0.8773819000
 H          1.2784526537       -1.1061068380        0.8849817779
 H          0.0067451040        1.0339054543        0.8831043702
 H          0.0086838517        1.0338800515       -0.8801039855
 H         -1.2418783175       -1.1226119926        0.8806176166
 H         -1.2423045578       -1.1201974957       -0.8816773970
 H         -2.5398330414        1.0042848311       -0.8808549771
 H         -2.5385536027        1.0029636195        0.8856258198
 H         -3.7750876082       -1.1665599792        0.8857303227
 H         -3.7741817493       -1.1670186592       -0.8818775327
 H         -5.0873738686        0.8048844052       -0.8163217816
 H         -5.0886328112        0.8051202469        0.8175039991
          28
        -29.74569606
 C          5.0930997741        0.3674779195        0.0028165674
 C          3.8300579594       -0.4856511808        0.0079200826
 C          2.5653765785        0.3701203464       -0.0034990679
 C          1.2956850250       -0.4779759157       -0.0018955352
 C          0.0323461739        0.3796689658       -0.0062533978
 C         -1.2372301846       -0.4692105742       -0.0063014049
 C         -2.5001133350        0.3875017609       -0.0023849933
 C         -3.7748418543       -0.4675648764       -0.0010657566
 N         -5.0184288740        0.2880757079        0.0090097851
 H          5.9798521411       -0.2614511787        0.0114869179
 H          5.1246989993        0.9948862565       -0.8851471424
 H          5.1199599475        1.0125274765        0.8781846731
 H          3.8254066518       -1.1223417575        0.8955062244
 H          3.8298348085       -1.1392925876       -0.8672597609
 H          2.5646409622        1.0223879932        0.8730781331
 H          2.5713526128        1.0091084054       -0.8897829247
 H          1.2940646943       -1.1270405678       -0.8807597471
 H          1.2919909558       -1.1205564755        0.8817262106
 H          0.0337002395        1.0272068532        0.8738280920
 H          0.0367186226        1.0233128511       -0.8891673062
 H         -1.2395140749       -1.1165399161        0.8736221662
 H         -1.2420794910       -1.1129124294       -0.8888554146
 H         -2.5028863530        1.0342978813       -0.8843948873
 H         -2.4990664945        1.0311593064        0.8819676251
 H         -3.7767468584       -1.1162060338        0.8794148150
 H         -3.7852525372       -1.1069705724       -0.8882308035
 H         -5.0520001627        0.8955709298       -0.8032776827
 H         -5.0455369668        0.8841985463        0.8299280711
