 xtb: 6.7.1 (edcfbbe)
          04032520213D

 16 16  0     0  0            999 V2000
   -0.7726   -1.2236   -0.1918 C   0  0  0  0  0  0  0  0  0  0  0  0
    0.7662   -1.2272   -0.2106 C   0  0  0  0  0  0  0  0  0  0  0  0
    1.3710    0.0693    0.3538 C   0  0  0  0  0  0  0  0  0  0  0  0
    0.6568    1.2561   -0.2101 C   0  0  0  0  0  0  0  0  0  0  0  0
   -0.6670    1.2560   -0.1815 C   0  0  0  0  0  0  0  0  0  0  0  0
   -1.3554    0.0664    0.4082 C   0  0  0  0  0  0  0  0  0  0  0  0
   -1.1473   -2.0764    0.3755 H   0  0  0  0  0  0  0  0  0  0  0  0
   -1.1467   -1.3204   -1.2124 H   0  0  0  0  0  0  0  0  0  0  0  0
    1.1508   -2.0718    0.3624 H   0  0  0  0  0  0  0  0  0  0  0  0
    1.1143   -1.3444   -1.2381 H   0  0  0  0  0  0  0  0  0  0  0  0
    1.2519    0.0668    1.4417 H   0  0  0  0  0  0  0  0  0  0  0  0
    2.4378    0.1049    0.1333 H   0  0  0  0  0  0  0  0  0  0  0  0
    1.2316    2.0679   -0.6285 H   0  0  0  0  0  0  0  0  0  0  0  0
   -1.2596    2.0672   -0.5755 H   0  0  0  0  0  0  0  0  0  0  0  0
   -1.1892    0.0571    1.4899 H   0  0  0  0  0  0  0  0  0  0  0  0
   -2.4308    0.1016    0.2338 H   0  0  0  0  0  0  0  0  0  0  0  0
  1  2  1  0  0  0  0
  2  3  1  0  0  0  0
  3  4  1  0  0  0  0
  4  5  2  0  0  0  0
  1  6  1  0  0  0  0
  5  6  1  0  0  0  0
  1  7  1  0  0  0  0
  1  8  1  0  0  0  0
  2  9  1  0  0  0  0
  2 10  1  0  0  0  0
  3 11  1  0  0  0  0
  3 12  1  0  0  0  0
  4 13  1  0  0  0  0
  5 14  1  0  0  0  0
  6 15  1  0  0  0  0
  6 16  1  0  0  0  0
M  END
