 xtb: 6.7.1 (edcfbbe)
          04092505203D

 41 40  0     0  0            999 V2000
    5.5209    0.4000   -1.0830 C   0  0  0  0  0  0  0  0  0  0  0  0
    4.6188   -0.5991   -0.3853 C   0  0  0  0  0  0  0  0  0  0  0  0
    3.5343    0.0830    0.2781 O   0  0  0  0  0  0  0  0  0  0  0  0
    2.0638    0.1269   -0.3323 P   0  0  0  0  0  0  0  0  0  0  0  0
    1.9951    0.5079   -2.2579 S   0  0  0  0  0  0  0  0  0  0  0  0
    1.3783    1.1439    0.6642 O   0  0  0  0  0  0  0  0  0  0  0  0
    1.5317    2.5717    0.4966 C   0  0  0  0  0  0  0  0  0  0  0  0
    0.6890    3.2488    1.5555 C   0  0  0  0  0  0  0  0  0  0  0  0
    1.2597   -1.7066    0.2925 S   0  0  0  0  0  0  0  0  0  0  0  0
   -0.0165   -1.9787   -0.9895 C   0  0  0  0  0  0  0  0  0  0  0  0
   -1.6747   -2.1054   -0.2949 S   0  0  0  0  0  0  0  0  0  0  0  0
   -1.9456   -0.0599    0.2361 P   0  0  0  0  0  0  0  0  0  0  0  0
   -1.3225    1.2264   -1.1043 S   0  0  0  0  0  0  0  0  0  0  0  0
   -1.2648    0.1882    1.6301 O   0  0  0  0  0  0  0  0  0  0  0  0
   -1.2160   -0.7183    2.7616 C   0  0  0  0  0  0  0  0  0  0  0  0
   -2.5769   -1.2275    3.1818 C   0  0  0  0  0  0  0  0  0  0  0  0
   -3.4923    0.0018    0.5868 O   0  0  0  0  0  0  0  0  0  0  0  0
   -4.5269   -0.1471   -0.4057 C   0  0  0  0  0  0  0  0  0  0  0  0
   -4.9895    1.2046   -0.9138 C   0  0  0  0  0  0  0  0  0  0  0  0
    5.8887    1.1336   -0.3713 H   0  0  0  0  0  0  0  0  0  0  0  0
    6.3606   -0.1252   -1.5262 H   0  0  0  0  0  0  0  0  0  0  0  0
    4.9695    0.9139   -1.8678 H   0  0  0  0  0  0  0  0  0  0  0  0
    5.1461   -1.1311    0.4084 H   0  0  0  0  0  0  0  0  0  0  0  0
    4.2101   -1.3174   -1.1013 H   0  0  0  0  0  0  0  0  0  0  0  0
    2.5912    2.8190    0.6002 H   0  0  0  0  0  0  0  0  0  0  0  0
    1.1955    2.8348   -0.5123 H   0  0  0  0  0  0  0  0  0  0  0  0
   -0.3509    2.9528    1.4381 H   0  0  0  0  0  0  0  0  0  0  0  0
    1.0294    2.9575    2.5447 H   0  0  0  0  0  0  0  0  0  0  0  0
    0.7712    4.3247    1.4419 H   0  0  0  0  0  0  0  0  0  0  0  0
    0.1881   -2.9322   -1.4691 H   0  0  0  0  0  0  0  0  0  0  0  0
    0.0313   -1.1551   -1.7082 H   0  0  0  0  0  0  0  0  0  0  0  0
   -0.5492   -1.5462    2.5034 H   0  0  0  0  0  0  0  0  0  0  0  0
   -0.7548   -0.1091    3.5404 H   0  0  0  0  0  0  0  0  0  0  0  0
   -2.4692   -1.7882    4.1053 H   0  0  0  0  0  0  0  0  0  0  0  0
   -3.2577   -0.3958    3.3426 H   0  0  0  0  0  0  0  0  0  0  0  0
   -2.9912   -1.8822    2.4181 H   0  0  0  0  0  0  0  0  0  0  0  0
   -4.1562   -0.7686   -1.2250 H   0  0  0  0  0  0  0  0  0  0  0  0
   -5.3316   -0.6712    0.1135 H   0  0  0  0  0  0  0  0  0  0  0  0
   -4.1738    1.7153   -1.4213 H   0  0  0  0  0  0  0  0  0  0  0  0
   -5.8085    1.0643   -1.6118 H   0  0  0  0  0  0  0  0  0  0  0  0
   -5.3241    1.8211   -0.0842 H   0  0  0  0  0  0  0  0  0  0  0  0
  1  2  1  0  0  0  0
  2  3  1  0  0  0  0
  3  4  2  0  0  0  0
  4  5  2  0  0  0  0
  4  6  2  0  0  0  0
  6  7  1  0  0  0  0
  7  8  1  0  0  0  0
  4  9  1  0  0  0  0
  9 10  1  0  0  0  0
 10 11  1  0  0  0  0
 11 12  1  0  0  0  0
 12 13  2  0  0  0  0
 12 14  2  0  0  0  0
 14 15  1  0  0  0  0
 15 16  1  0  0  0  0
 12 17  2  0  0  0  0
 17 18  1  0  0  0  0
 18 19  1  0  0  0  0
  1 20  1  0  0  0  0
  1 21  1  0  0  0  0
  1 22  1  0  0  0  0
  2 23  1  0  0  0  0
  2 24  1  0  0  0  0
  7 25  1  0  0  0  0
  7 26  1  0  0  0  0
  8 27  1  0  0  0  0
  8 28  1  0  0  0  0
  8 29  1  0  0  0  0
 10 30  1  0  0  0  0
 10 31  1  0  0  0  0
 15 32  1  0  0  0  0
 15 33  1  0  0  0  0
 16 34  1  0  0  0  0
 16 35  1  0  0  0  0
 16 36  1  0  0  0  0
 18 37  1  0  0  0  0
 18 38  1  0  0  0  0
 19 39  1  0  0  0  0
 19 40  1  0  0  0  0
 19 41  1  0  0  0  0
M  END
