 xtb: 6.7.1 (edcfbbe)
          04092505213D

 41 40  0     0  0            999 V2000
    2.4579   -3.1785   -1.1149 C   0  0  0  0  0  0  0  0  0  0  0  0
    3.3566   -2.0982   -1.6792 C   0  0  0  0  0  0  0  0  0  0  0  0
    3.5760   -1.0129   -0.7487 O   0  0  0  0  0  0  0  0  0  0  0  0
    2.4646   -0.0648   -0.1278 P   0  0  0  0  0  0  0  0  0  0  0  0
    3.3033    1.5576    0.5646 S   0  0  0  0  0  0  0  0  0  0  0  0
    1.6604   -0.9330    0.9470 O   0  0  0  0  0  0  0  0  0  0  0  0
    1.9477   -0.9107    2.3598 C   0  0  0  0  0  0  0  0  0  0  0  0
    0.9717   -0.0174    3.0992 C   0  0  0  0  0  0  0  0  0  0  0  0
    1.0272    0.1137   -1.6670 S   0  0  0  0  0  0  0  0  0  0  0  0
    0.3930    1.7430   -1.2001 C   0  0  0  0  0  0  0  0  0  0  0  0
   -0.4508    1.7510    0.4027 S   0  0  0  0  0  0  0  0  0  0  0  0
   -1.9523    0.3476   -0.0941 P   0  0  0  0  0  0  0  0  0  0  0  0
   -2.6616    0.4513   -1.9232 S   0  0  0  0  0  0  0  0  0  0  0  0
   -3.0211    0.5530    1.0615 O   0  0  0  0  0  0  0  0  0  0  0  0
   -3.9422    1.6620    1.0505 C   0  0  0  0  0  0  0  0  0  0  0  0
   -5.0599    1.3481    2.0244 C   0  0  0  0  0  0  0  0  0  0  0  0
   -1.2873   -1.0175    0.3430 O   0  0  0  0  0  0  0  0  0  0  0  0
   -1.6586   -2.2755   -0.2564 C   0  0  0  0  0  0  0  0  0  0  0  0
   -3.0623   -2.6840    0.1369 C   0  0  0  0  0  0  0  0  0  0  0  0
    2.8668   -3.5627   -0.1840 H   0  0  0  0  0  0  0  0  0  0  0  0
    1.4646   -2.7751   -0.9275 H   0  0  0  0  0  0  0  0  0  0  0  0
    2.3810   -3.9875   -1.8347 H   0  0  0  0  0  0  0  0  0  0  0  0
    2.9337   -1.6810   -2.5969 H   0  0  0  0  0  0  0  0  0  0  0  0
    4.3643   -2.4698   -1.8719 H   0  0  0  0  0  0  0  0  0  0  0  0
    1.8510   -1.9506    2.6770 H   0  0  0  0  0  0  0  0  0  0  0  0
    2.9766   -0.5715    2.5133 H   0  0  0  0  0  0  0  0  0  0  0  0
   -0.0499   -0.2935    2.8485 H   0  0  0  0  0  0  0  0  0  0  0  0
    1.1251   -0.1282    4.1677 H   0  0  0  0  0  0  0  0  0  0  0  0
    1.1298    1.0230    2.8228 H   0  0  0  0  0  0  0  0  0  0  0  0
   -0.3051    2.0325   -1.9851 H   0  0  0  0  0  0  0  0  0  0  0  0
    1.2192    2.4485   -1.1165 H   0  0  0  0  0  0  0  0  0  0  0  0
   -3.3967    2.5628    1.3451 H   0  0  0  0  0  0  0  0  0  0  0  0
   -4.3205    1.7906    0.0308 H   0  0  0  0  0  0  0  0  0  0  0  0
   -5.5927    0.4554    1.7096 H   0  0  0  0  0  0  0  0  0  0  0  0
   -4.6496    1.1827    3.0163 H   0  0  0  0  0  0  0  0  0  0  0  0
   -5.7500    2.1847    2.0552 H   0  0  0  0  0  0  0  0  0  0  0  0
   -1.5702   -2.1827   -1.3439 H   0  0  0  0  0  0  0  0  0  0  0  0
   -0.9114   -2.9758    0.1199 H   0  0  0  0  0  0  0  0  0  0  0  0
   -3.1593   -2.7036    1.2191 H   0  0  0  0  0  0  0  0  0  0  0  0
   -3.7783   -1.9696   -0.2681 H   0  0  0  0  0  0  0  0  0  0  0  0
   -3.2789   -3.6683   -0.2662 H   0  0  0  0  0  0  0  0  0  0  0  0
  1  2  1  0  0  0  0
  2  3  1  0  0  0  0
  3  4  2  0  0  0  0
  4  5  2  0  0  0  0
  4  6  1  0  0  0  0
  6  7  1  0  0  0  0
  7  8  1  0  0  0  0
  4  9  1  0  0  0  0
  9 10  1  0  0  0  0
 10 11  1  0  0  0  0
 11 12  1  0  0  0  0
 12 13  2  0  0  0  0
 12 14  2  0  0  0  0
 14 15  1  0  0  0  0
 15 16  1  0  0  0  0
 12 17  2  0  0  0  0
 17 18  1  0  0  0  0
 18 19  1  0  0  0  0
  1 20  1  0  0  0  0
  1 21  1  0  0  0  0
  1 22  1  0  0  0  0
  2 23  1  0  0  0  0
  2 24  1  0  0  0  0
  7 25  1  0  0  0  0
  7 26  1  0  0  0  0
  8 27  1  0  0  0  0
  8 28  1  0  0  0  0
  8 29  1  0  0  0  0
 10 30  1  0  0  0  0
 10 31  1  0  0  0  0
 15 32  1  0  0  0  0
 15 33  1  0  0  0  0
 16 34  1  0  0  0  0
 16 35  1  0  0  0  0
 16 36  1  0  0  0  0
 18 37  1  0  0  0  0
 18 38  1  0  0  0  0
 19 39  1  0  0  0  0
 19 40  1  0  0  0  0
 19 41  1  0  0  0  0
M  END
