 xtb: 6.7.1 (edcfbbe)
          04092505203D

 41 40  0     0  0            999 V2000
    2.0549    2.5166   -0.8768 C   0  0  0  0  0  0  0  0  0  0  0  0
    1.9442    1.2023   -1.6244 C   0  0  0  0  0  0  0  0  0  0  0  0
    2.7721    0.1745   -1.0587 O   0  0  0  0  0  0  0  0  0  0  0  0
    2.5728   -0.5068    0.3556 P   0  0  0  0  0  0  0  0  0  0  0  0
    3.0426    0.5208    1.9632 S   0  0  0  0  0  0  0  0  0  0  0  0
    3.5218   -1.7339    0.0549 O   0  0  0  0  0  0  0  0  0  0  0  0
    4.1158   -2.5095    1.1108 C   0  0  0  0  0  0  0  0  0  0  0  0
    3.0942   -3.3675    1.8306 C   0  0  0  0  0  0  0  0  0  0  0  0
    0.5994   -1.3272    0.3435 S   0  0  0  0  0  0  0  0  0  0  0  0
   -0.1563   -0.2953    1.6263 C   0  0  0  0  0  0  0  0  0  0  0  0
   -0.9048    1.2366    0.9964 S   0  0  0  0  0  0  0  0  0  0  0  0
   -2.2519    0.4185   -0.4207 P   0  0  0  0  0  0  0  0  0  0  0  0
   -1.6082   -0.0321   -2.2245 S   0  0  0  0  0  0  0  0  0  0  0  0
   -3.4609    1.4513   -0.4239 O   0  0  0  0  0  0  0  0  0  0  0  0
   -3.4941    2.5828   -1.3082 C   0  0  0  0  0  0  0  0  0  0  0  0
   -2.4175    3.5923   -0.9656 C   0  0  0  0  0  0  0  0  0  0  0  0
   -2.8268   -0.7795    0.4385 O   0  0  0  0  0  0  0  0  0  0  0  0
   -3.4536   -1.9251   -0.1754 C   0  0  0  0  0  0  0  0  0  0  0  0
   -4.7956   -1.5697   -0.7793 C   0  0  0  0  0  0  0  0  0  0  0  0
    1.6236    2.4326    0.1197 H   0  0  0  0  0  0  0  0  0  0  0  0
    3.0992    2.8035   -0.7815 H   0  0  0  0  0  0  0  0  0  0  0  0
    1.5208    3.2853   -1.4265 H   0  0  0  0  0  0  0  0  0  0  0  0
    2.3158    1.2957   -2.6466 H   0  0  0  0  0  0  0  0  0  0  0  0
    0.9075    0.8502   -1.6584 H   0  0  0  0  0  0  0  0  0  0  0  0
    4.8632   -3.1175    0.5992 H   0  0  0  0  0  0  0  0  0  0  0  0
    4.6086   -1.8274    1.8115 H   0  0  0  0  0  0  0  0  0  0  0  0
    3.6053   -4.0292    2.5226 H   0  0  0  0  0  0  0  0  0  0  0  0
    2.4050   -2.7360    2.3894 H   0  0  0  0  0  0  0  0  0  0  0  0
    2.5288   -3.9592    1.1151 H   0  0  0  0  0  0  0  0  0  0  0  0
    0.6157    0.0231    2.3317 H   0  0  0  0  0  0  0  0  0  0  0  0
   -0.9208   -0.8934    2.1133 H   0  0  0  0  0  0  0  0  0  0  0  0
   -3.3711    2.2237   -2.3355 H   0  0  0  0  0  0  0  0  0  0  0  0
   -4.4951    2.9948   -1.1746 H   0  0  0  0  0  0  0  0  0  0  0  0
   -1.4345    3.1493   -1.1283 H   0  0  0  0  0  0  0  0  0  0  0  0
   -2.5216    4.4654   -1.6016 H   0  0  0  0  0  0  0  0  0  0  0  0
   -2.4948    3.8905    0.0768 H   0  0  0  0  0  0  0  0  0  0  0  0
   -2.7763   -2.3239   -0.9376 H   0  0  0  0  0  0  0  0  0  0  0  0
   -3.5525   -2.6400    0.6424 H   0  0  0  0  0  0  0  0  0  0  0  0
   -5.2783   -2.4721   -1.1412 H   0  0  0  0  0  0  0  0  0  0  0  0
   -5.4275   -1.0922   -0.0352 H   0  0  0  0  0  0  0  0  0  0  0  0
   -4.6552   -0.8841   -1.6140 H   0  0  0  0  0  0  0  0  0  0  0  0
  1  2  1  0  0  0  0
  2  3  1  0  0  0  0
  3  4  2  0  0  0  0
  4  5  2  0  0  0  0
  4  6  2  0  0  0  0
  6  7  1  0  0  0  0
  7  8  1  0  0  0  0
  4  9  1  0  0  0  0
  9 10  1  0  0  0  0
 10 11  1  0  0  0  0
 11 12  1  0  0  0  0
 12 13  2  0  0  0  0
 12 14  2  0  0  0  0
 14 15  1  0  0  0  0
 15 16  1  0  0  0  0
 12 17  2  0  0  0  0
 17 18  1  0  0  0  0
 18 19  1  0  0  0  0
  1 20  1  0  0  0  0
  1 21  1  0  0  0  0
  1 22  1  0  0  0  0
  2 23  1  0  0  0  0
  2 24  1  0  0  0  0
  7 25  1  0  0  0  0
  7 26  1  0  0  0  0
  8 27  1  0  0  0  0
  8 28  1  0  0  0  0
  8 29  1  0  0  0  0
 10 30  1  0  0  0  0
 10 31  1  0  0  0  0
 15 32  1  0  0  0  0
 15 33  1  0  0  0  0
 16 34  1  0  0  0  0
 16 35  1  0  0  0  0
 16 36  1  0  0  0  0
 18 37  1  0  0  0  0
 18 38  1  0  0  0  0
 19 39  1  0  0  0  0
 19 40  1  0  0  0  0
 19 41  1  0  0  0  0
M  END
