 xtb: 6.7.1 (edcfbbe)
          04092513583D

 41 40  0     0  0            999 V2000
    5.4416   -1.8204   -1.9798 C   0  0  0  0  0  0  0  0  0  0  0  0
    4.3959   -0.7568   -1.7094 C   0  0  0  0  0  0  0  0  0  0  0  0
    3.4505   -1.2927   -0.7605 O   0  0  0  0  0  0  0  0  0  0  0  0
    2.4271   -0.3622    0.0202 P   0  0  0  0  0  0  0  0  0  0  0  0
    3.2189    1.2148    0.8835 S   0  0  0  0  0  0  0  0  0  0  0  0
    1.7023   -1.3973    0.9682 O   0  0  0  0  0  0  0  0  0  0  0  0
    2.1183   -1.6257    2.3308 C   0  0  0  0  0  0  0  0  0  0  0  0
    3.4258   -2.3865    2.3994 C   0  0  0  0  0  0  0  0  0  0  0  0
    0.9186    0.0096   -1.4159 S   0  0  0  0  0  0  0  0  0  0  0  0
    0.1854    1.4720   -0.6311 C   0  0  0  0  0  0  0  0  0  0  0  0
   -0.7564    1.1062    0.8804 S   0  0  0  0  0  0  0  0  0  0  0  0
   -2.6359    0.6387    0.0293 P   0  0  0  0  0  0  0  0  0  0  0  0
   -2.7805    0.6350   -1.9300 S   0  0  0  0  0  0  0  0  0  0  0  0
   -3.5029    1.7034    0.8199 O   0  0  0  0  0  0  0  0  0  0  0  0
   -4.9490    1.7197    0.7312 C   0  0  0  0  0  0  0  0  0  0  0  0
   -5.4209    2.7998   -0.2222 C   0  0  0  0  0  0  0  0  0  0  0  0
   -3.1401   -0.7088    0.7162 O   0  0  0  0  0  0  0  0  0  0  0  0
   -2.9371   -2.0110    0.1468 C   0  0  0  0  0  0  0  0  0  0  0  0
   -1.5334   -2.5208    0.4009 C   0  0  0  0  0  0  0  0  0  0  0  0
    5.9736   -2.0670   -1.0655 H   0  0  0  0  0  0  0  0  0  0  0  0
    4.9660   -2.7179   -2.3640 H   0  0  0  0  0  0  0  0  0  0  0  0
    6.1477   -1.4457   -2.7138 H   0  0  0  0  0  0  0  0  0  0  0  0
    3.8539   -0.4914   -2.6213 H   0  0  0  0  0  0  0  0  0  0  0  0
    4.8431    0.1476   -1.2833 H   0  0  0  0  0  0  0  0  0  0  0  0
    2.2029   -0.6578    2.8352 H   0  0  0  0  0  0  0  0  0  0  0  0
    1.2960   -2.1969    2.7632 H   0  0  0  0  0  0  0  0  0  0  0  0
    3.6510   -2.6193    3.4357 H   0  0  0  0  0  0  0  0  0  0  0  0
    3.3554   -3.3079    1.8276 H   0  0  0  0  0  0  0  0  0  0  0  0
    4.2307   -1.7777    1.9900 H   0  0  0  0  0  0  0  0  0  0  0  0
   -0.4717    1.9181   -1.3759 H   0  0  0  0  0  0  0  0  0  0  0  0
    0.9829    2.1542   -0.3373 H   0  0  0  0  0  0  0  0  0  0  0  0
   -5.3021    0.7349    0.4145 H   0  0  0  0  0  0  0  0  0  0  0  0
   -5.2860    1.9154    1.7507 H   0  0  0  0  0  0  0  0  0  0  0  0
   -6.5064    2.8254   -0.2203 H   0  0  0  0  0  0  0  0  0  0  0  0
   -5.0385    3.7673    0.0902 H   0  0  0  0  0  0  0  0  0  0  0  0
   -5.0724    2.5935   -1.2318 H   0  0  0  0  0  0  0  0  0  0  0  0
   -3.6831   -2.6353    0.6416 H   0  0  0  0  0  0  0  0  0  0  0  0
   -3.1457   -1.9602   -0.9272 H   0  0  0  0  0  0  0  0  0  0  0  0
   -0.8063   -1.9211   -0.1444 H   0  0  0  0  0  0  0  0  0  0  0  0
   -1.3025   -2.4690    1.4619 H   0  0  0  0  0  0  0  0  0  0  0  0
   -1.4571   -3.5496    0.0647 H   0  0  0  0  0  0  0  0  0  0  0  0
  1  2  1  0  0  0  0
  2  3  1  0  0  0  0
  3  4  2  0  0  0  0
  4  5  2  0  0  0  0
  4  6  2  0  0  0  0
  6  7  1  0  0  0  0
  7  8  1  0  0  0  0
  4  9  1  0  0  0  0
  9 10  1  0  0  0  0
 10 11  1  0  0  0  0
 11 12  1  0  0  0  0
 12 13  2  0  0  0  0
 12 14  2  0  0  0  0
 14 15  1  0  0  0  0
 15 16  1  0  0  0  0
 12 17  2  0  0  0  0
 17 18  1  0  0  0  0
 18 19  1  0  0  0  0
  1 20  1  0  0  0  0
  1 21  1  0  0  0  0
  1 22  1  0  0  0  0
  2 23  1  0  0  0  0
  2 24  1  0  0  0  0
  7 25  1  0  0  0  0
  7 26  1  0  0  0  0
  8 27  1  0  0  0  0
  8 28  1  0  0  0  0
  8 29  1  0  0  0  0
 10 30  1  0  0  0  0
 10 31  1  0  0  0  0
 15 32  1  0  0  0  0
 15 33  1  0  0  0  0
 16 34  1  0  0  0  0
 16 35  1  0  0  0  0
 16 36  1  0  0  0  0
 18 37  1  0  0  0  0
 18 38  1  0  0  0  0
 19 39  1  0  0  0  0
 19 40  1  0  0  0  0
 19 41  1  0  0  0  0
M  END
