 xtb: 6.7.1 (edcfbbe)
          04092505213D

 41 40  0     0  0            999 V2000
    5.0634    1.2321   -1.6820 C   0  0  0  0  0  0  0  0  0  0  0  0
    4.0489    1.7890   -0.7048 C   0  0  0  0  0  0  0  0  0  0  0  0
    3.8457    0.8726    0.4002 O   0  0  0  0  0  0  0  0  0  0  0  0
    2.6349   -0.1264    0.4977 P   0  0  0  0  0  0  0  0  0  0  0  0
    2.7304   -1.1273    2.1726 S   0  0  0  0  0  0  0  0  0  0  0  0
    2.7714   -0.9237   -0.8744 O   0  0  0  0  0  0  0  0  0  0  0  0
    1.7903   -1.7996   -1.4502 C   0  0  0  0  0  0  0  0  0  0  0  0
    1.5068   -3.0131   -0.5890 C   0  0  0  0  0  0  0  0  0  0  0  0
    0.9033    1.1143    0.2437 S   0  0  0  0  0  0  0  0  0  0  0  0
   -0.0938    0.5070    1.6218 C   0  0  0  0  0  0  0  0  0  0  0  0
   -1.1487   -0.9143    1.2070 S   0  0  0  0  0  0  0  0  0  0  0  0
   -2.2392   -0.0680   -0.4057 P   0  0  0  0  0  0  0  0  0  0  0  0
   -1.4724   -0.0551   -2.2040 S   0  0  0  0  0  0  0  0  0  0  0  0
   -2.5602    1.3765    0.1987 O   0  0  0  0  0  0  0  0  0  0  0  0
   -2.6569    2.5471   -0.6315 C   0  0  0  0  0  0  0  0  0  0  0  0
   -3.9956    2.5985   -1.3389 C   0  0  0  0  0  0  0  0  0  0  0  0
   -3.5703   -0.9237   -0.4350 O   0  0  0  0  0  0  0  0  0  0  0  0
   -4.3129   -1.4285    0.6989 C   0  0  0  0  0  0  0  0  0  0  0  0
   -4.8520   -0.3216    1.5800 C   0  0  0  0  0  0  0  0  0  0  0  0
    4.6921    0.3146   -2.1306 H   0  0  0  0  0  0  0  0  0  0  0  0
    5.2448    1.9650   -2.4621 H   0  0  0  0  0  0  0  0  0  0  0  0
    5.9952    1.0170   -1.1663 H   0  0  0  0  0  0  0  0  0  0  0  0
    3.0888    1.9795   -1.1927 H   0  0  0  0  0  0  0  0  0  0  0  0
    4.4101    2.7059   -0.2355 H   0  0  0  0  0  0  0  0  0  0  0  0
    0.8750   -1.2298   -1.6423 H   0  0  0  0  0  0  0  0  0  0  0  0
    2.2324   -2.0893   -2.4053 H   0  0  0  0  0  0  0  0  0  0  0  0
    2.4313   -3.5375   -0.3602 H   0  0  0  0  0  0  0  0  0  0  0  0
    1.0352   -2.7202    0.3479 H   0  0  0  0  0  0  0  0  0  0  0  0
    0.8364   -3.6780   -1.1245 H   0  0  0  0  0  0  0  0  0  0  0  0
   -0.7179    1.3325    1.9512 H   0  0  0  0  0  0  0  0  0  0  0  0
    0.5667    0.1572    2.4184 H   0  0  0  0  0  0  0  0  0  0  0  0
   -2.5281    3.3819    0.0586 H   0  0  0  0  0  0  0  0  0  0  0  0
   -1.8361    2.5345   -1.3557 H   0  0  0  0  0  0  0  0  0  0  0  0
   -4.8068    2.6058   -0.6159 H   0  0  0  0  0  0  0  0  0  0  0  0
   -4.0485    3.4949   -1.9483 H   0  0  0  0  0  0  0  0  0  0  0  0
   -4.1014    1.7252   -1.9822 H   0  0  0  0  0  0  0  0  0  0  0  0
   -5.1176   -2.0012    0.2347 H   0  0  0  0  0  0  0  0  0  0  0  0
   -3.6623   -2.0992    1.2653 H   0  0  0  0  0  0  0  0  0  0  0  0
   -5.4616   -0.7594    2.3645 H   0  0  0  0  0  0  0  0  0  0  0  0
   -4.0338    0.2321    2.0351 H   0  0  0  0  0  0  0  0  0  0  0  0
   -5.4607    0.3630    0.9949 H   0  0  0  0  0  0  0  0  0  0  0  0
  1  2  1  0  0  0  0
  2  3  1  0  0  0  0
  3  4  2  0  0  0  0
  4  5  2  0  0  0  0
  4  6  2  0  0  0  0
  6  7  1  0  0  0  0
  7  8  1  0  0  0  0
  4  9  1  0  0  0  0
  9 10  1  0  0  0  0
 10 11  1  0  0  0  0
 11 12  1  0  0  0  0
 12 13  2  0  0  0  0
 12 14  1  0  0  0  0
 14 15  1  0  0  0  0
 15 16  1  0  0  0  0
 12 17  2  0  0  0  0
 17 18  1  0  0  0  0
 18 19  1  0  0  0  0
  1 20  1  0  0  0  0
  1 21  1  0  0  0  0
  1 22  1  0  0  0  0
  2 23  1  0  0  0  0
  2 24  1  0  0  0  0
  7 25  1  0  0  0  0
  7 26  1  0  0  0  0
  8 27  1  0  0  0  0
  8 28  1  0  0  0  0
  8 29  1  0  0  0  0
 10 30  1  0  0  0  0
 10 31  1  0  0  0  0
 15 32  1  0  0  0  0
 15 33  1  0  0  0  0
 16 34  1  0  0  0  0
 16 35  1  0  0  0  0
 16 36  1  0  0  0  0
 18 37  1  0  0  0  0
 18 38  1  0  0  0  0
 19 39  1  0  0  0  0
 19 40  1  0  0  0  0
 19 41  1  0  0  0  0
M  END
