 xtb: 6.7.1 (edcfbbe)
          04092505203D

 41 40  0     0  0            999 V2000
    3.9244   -1.3805   -2.5349 C   0  0  0  0  0  0  0  0  0  0  0  0
    4.0453   -1.5211   -1.0296 C   0  0  0  0  0  0  0  0  0  0  0  0
    3.5789   -0.3568   -0.3277 O   0  0  0  0  0  0  0  0  0  0  0  0
    2.0486    0.0385   -0.1125 P   0  0  0  0  0  0  0  0  0  0  0  0
    1.0973    0.6669   -1.7115 S   0  0  0  0  0  0  0  0  0  0  0  0
    2.2192    1.0700    1.0696 O   0  0  0  0  0  0  0  0  0  0  0  0
    2.2374    2.4941    0.8648 C   0  0  0  0  0  0  0  0  0  0  0  0
    3.5069    2.9354    0.1683 C   0  0  0  0  0  0  0  0  0  0  0  0
    1.2512   -1.6567    0.8695 S   0  0  0  0  0  0  0  0  0  0  0  0
   -0.0993   -2.1058   -0.2781 C   0  0  0  0  0  0  0  0  0  0  0  0
   -1.7491   -2.0573    0.4724 S   0  0  0  0  0  0  0  0  0  0  0  0
   -2.1561   -0.0008    0.3594 P   0  0  0  0  0  0  0  0  0  0  0  0
   -0.9870    1.3031    1.2607 S   0  0  0  0  0  0  0  0  0  0  0  0
   -3.6725    0.1156    0.8244 O   0  0  0  0  0  0  0  0  0  0  0  0
   -4.0453    0.3408    2.1943 C   0  0  0  0  0  0  0  0  0  0  0  0
   -3.7097   -0.8481    3.0710 C   0  0  0  0  0  0  0  0  0  0  0  0
   -2.2832    0.1404   -1.2099 O   0  0  0  0  0  0  0  0  0  0  0  0
   -2.4810    1.4217   -1.8481 C   0  0  0  0  0  0  0  0  0  0  0  0
   -2.1921    1.2533   -3.3244 C   0  0  0  0  0  0  0  0  0  0  0  0
    2.8808   -1.2986   -2.8304 H   0  0  0  0  0  0  0  0  0  0  0  0
    4.4485   -0.4903   -2.8727 H   0  0  0  0  0  0  0  0  0  0  0  0
    4.3597   -2.2538   -3.0097 H   0  0  0  0  0  0  0  0  0  0  0  0
    5.0902   -1.6032   -0.7241 H   0  0  0  0  0  0  0  0  0  0  0  0
    3.4904   -2.3932   -0.6697 H   0  0  0  0  0  0  0  0  0  0  0  0
    1.3505    2.7770    0.2878 H   0  0  0  0  0  0  0  0  0  0  0  0
    2.1529    2.9041    1.8720 H   0  0  0  0  0  0  0  0  0  0  0  0
    3.5178    4.0179    0.0897 H   0  0  0  0  0  0  0  0  0  0  0  0
    4.3756    2.5998    0.7283 H   0  0  0  0  0  0  0  0  0  0  0  0
    3.5450    2.5040   -0.8316 H   0  0  0  0  0  0  0  0  0  0  0  0
    0.0525   -3.1406   -0.5725 H   0  0  0  0  0  0  0  0  0  0  0  0
   -0.0706   -1.4328   -1.1396 H   0  0  0  0  0  0  0  0  0  0  0  0
   -3.5307    1.2399    2.5491 H   0  0  0  0  0  0  0  0  0  0  0  0
   -5.1201    0.5204    2.1477 H   0  0  0  0  0  0  0  0  0  0  0  0
   -4.1020   -0.6833    4.0694 H   0  0  0  0  0  0  0  0  0  0  0  0
   -4.1394   -1.7564    2.6563 H   0  0  0  0  0  0  0  0  0  0  0  0
   -2.6283   -0.9694    3.1320 H   0  0  0  0  0  0  0  0  0  0  0  0
   -3.5136    1.7305   -1.6688 H   0  0  0  0  0  0  0  0  0  0  0  0
   -1.8021    2.1481   -1.3883 H   0  0  0  0  0  0  0  0  0  0  0  0
   -2.3912    2.1899   -3.8345 H   0  0  0  0  0  0  0  0  0  0  0  0
   -1.1485    0.9832   -3.4672 H   0  0  0  0  0  0  0  0  0  0  0  0
   -2.8225    0.4717   -3.7375 H   0  0  0  0  0  0  0  0  0  0  0  0
  1  2  1  0  0  0  0
  2  3  1  0  0  0  0
  3  4  2  0  0  0  0
  4  5  2  0  0  0  0
  4  6  2  0  0  0  0
  6  7  1  0  0  0  0
  7  8  1  0  0  0  0
  4  9  1  0  0  0  0
  9 10  1  0  0  0  0
 10 11  1  0  0  0  0
 11 12  1  0  0  0  0
 12 13  2  0  0  0  0
 12 14  2  0  0  0  0
 14 15  1  0  0  0  0
 15 16  1  0  0  0  0
 12 17  2  0  0  0  0
 17 18  1  0  0  0  0
 18 19  1  0  0  0  0
  1 20  1  0  0  0  0
  1 21  1  0  0  0  0
  1 22  1  0  0  0  0
  2 23  1  0  0  0  0
  2 24  1  0  0  0  0
  7 25  1  0  0  0  0
  7 26  1  0  0  0  0
  8 27  1  0  0  0  0
  8 28  1  0  0  0  0
  8 29  1  0  0  0  0
 10 30  1  0  0  0  0
 10 31  1  0  0  0  0
 15 32  1  0  0  0  0
 15 33  1  0  0  0  0
 16 34  1  0  0  0  0
 16 35  1  0  0  0  0
 16 36  1  0  0  0  0
 18 37  1  0  0  0  0
 18 38  1  0  0  0  0
 19 39  1  0  0  0  0
 19 40  1  0  0  0  0
 19 41  1  0  0  0  0
M  END
