 xtb: 6.7.1 (edcfbbe)
          04092507313D

 38 37  0     0  0            999 V2000
    4.2563   -1.8383    1.1701 C   0  0  0  0  0  0  0  0  0  0  0  0
    2.7932   -1.9008    0.7794 C   0  0  0  0  0  0  0  0  0  0  0  0
    2.5754   -0.9717   -0.3004 O   0  0  0  0  0  0  0  0  0  0  0  0
    1.4770   -1.0808   -1.0116 C   0  0  0  0  0  0  0  0  0  0  0  0
    0.6056   -1.9055   -0.8134 O   0  0  0  0  0  0  0  0  0  0  0  0
    1.4123   -0.0518   -2.1217 C   0  0  0  0  0  0  0  0  0  0  0  0
    0.2295    0.8978   -1.9051 C   0  0  0  0  0  0  0  0  0  0  0  0
    0.1448    1.5717   -2.7621 H   0  0  0  0  0  0  0  0  0  0  0  0
    0.3829    1.7292   -0.6462 C   0  0  0  0  0  0  0  0  0  0  0  0
   -0.5184    1.8510    0.1643 O   0  0  0  0  0  0  0  0  0  0  0  0
    1.5569    2.2805   -0.5563 O   0  0  0  0  0  0  0  0  0  0  0  0
    1.8915    3.0247    0.6370 C   0  0  0  0  0  0  0  0  0  0  0  0
    2.4709    2.0926    1.6876 C   0  0  0  0  0  0  0  0  0  0  0  0
   -1.3794    0.0350   -1.8276 S   0  0  0  0  0  0  0  0  0  0  0  0
   -1.7397   -0.2967    0.2439 P   0  0  0  0  0  0  0  0  0  0  0  0
   -0.4685   -0.5558    1.7284 S   0  0  0  0  0  0  0  0  0  0  0  0
   -2.9661    0.6606    0.5770 O   0  0  0  0  0  0  0  0  0  0  0  0
   -2.9653    1.6990    1.5554 C   0  0  0  0  0  0  0  0  0  0  0  0
   -2.6795   -1.5879    0.0766 O   0  0  0  0  0  0  0  0  0  0  0  0
   -2.1844   -2.8995   -0.1851 C   0  0  0  0  0  0  0  0  0  0  0  0
    4.8818   -2.0873    0.3180 H   0  0  0  0  0  0  0  0  0  0  0  0
    4.5087   -0.8410    1.5164 H   0  0  0  0  0  0  0  0  0  0  0  0
    4.4394   -2.5481    1.9697 H   0  0  0  0  0  0  0  0  0  0  0  0
    2.1354   -1.6188    1.6080 H   0  0  0  0  0  0  0  0  0  0  0  0
    2.5026   -2.8986    0.4358 H   0  0  0  0  0  0  0  0  0  0  0  0
    1.2619   -0.5783   -3.0644 H   0  0  0  0  0  0  0  0  0  0  0  0
    2.3403    0.5183   -2.1405 H   0  0  0  0  0  0  0  0  0  0  0  0
    2.6272    3.7542    0.2989 H   0  0  0  0  0  0  0  0  0  0  0  0
    0.9928    3.5237    1.0072 H   0  0  0  0  0  0  0  0  0  0  0  0
    2.7716    2.6696    2.5555 H   0  0  0  0  0  0  0  0  0  0  0  0
    1.7274    1.3581    1.9947 H   0  0  0  0  0  0  0  0  0  0  0  0
    3.3331    1.5688    1.2845 H   0  0  0  0  0  0  0  0  0  0  0  0
   -2.7879    2.6539    1.0633 H   0  0  0  0  0  0  0  0  0  0  0  0
   -2.1879    1.5194    2.3007 H   0  0  0  0  0  0  0  0  0  0  0  0
   -3.9487    1.6775    2.0197 H   0  0  0  0  0  0  0  0  0  0  0  0
   -3.0324   -3.5643   -0.0411 H   0  0  0  0  0  0  0  0  0  0  0  0
   -1.3798   -3.1444    0.5102 H   0  0  0  0  0  0  0  0  0  0  0  0
   -1.8062   -2.9664   -1.2050 H   0  0  0  0  0  0  0  0  0  0  0  0
  1  2  1  0  0  0  0
  2  3  1  0  0  0  0
  3  4  4  0  0  0  0
  4  5  2  0  0  0  0
  4  6  1  0  0  0  0
  6  7  1  0  0  0  0
  7  8  1  0  0  0  0
  7  9  1  0  0  0  0
  9 10  2  0  0  0  0
  9 11  4  0  0  0  0
 11 12  1  0  0  0  0
 12 13  1  0  0  0  0
  7 14  1  0  0  0  0
 14 15  1  0  0  0  0
 15 16  2  0  0  0  0
 15 17  1  0  0  0  0
 17 18  1  0  0  0  0
 15 19  1  0  0  0  0
 19 20  1  0  0  0  0
  1 21  1  0  0  0  0
  1 22  1  0  0  0  0
  1 23  1  0  0  0  0
  2 24  1  0  0  0  0
  2 25  1  0  0  0  0
  6 26  1  0  0  0  0
  6 27  1  0  0  0  0
 12 28  1  0  0  0  0
 12 29  1  0  0  0  0
 13 30  1  0  0  0  0
 13 31  1  0  0  0  0
 13 32  1  0  0  0  0
 18 33  1  0  0  0  0
 18 34  1  0  0  0  0
 18 35  1  0  0  0  0
 20 36  1  0  0  0  0
 20 37  1  0  0  0  0
 20 38  1  0  0  0  0
M  END
