41
 xtb: 6.7.1 (edcfbbe)
C            0.69231064001138       -1.64830781204821        2.96438347294925
C            1.77530017339633       -1.47152979240604        1.93204412722243
O            1.38429102140359       -0.32513684946669        1.09631763890543
P            2.22493350617547        0.08029272149746       -0.20750563375864
S            2.85013707714705       -1.36525074544802       -1.35354584219209
O            3.34589930385407        1.03167181124767        0.44910719314374
C            4.45929789843301        1.56663407597036       -0.35153263703754
C            5.75339209805858        1.19685572439284        0.32581656917588
S            0.95235813995361        1.51259809609923       -1.10404469149653
C           -0.02816860215081        0.46559048520070       -2.25108286273638
S           -1.07952457974984       -0.84306995175452       -1.51080962026558
P           -2.45809661432898        0.30608774672354       -0.38597524066779
S           -3.01363118147372        2.00385545663316       -1.15955701232317
O           -1.75550419986007        0.34746916533302        1.05538231309892
C           -2.10860720765770        1.35024203450962        2.07169318031724
C           -3.44220955664197        1.05239397906126        2.71040406951739
O           -3.60511931837905       -0.79675813875127       -0.12213593857856
C           -4.62254364509886       -1.07430351035544       -1.14634095714719
C           -5.43085814682219       -2.24860336749169       -0.65994068639514
H            0.95553524281132       -2.49057953465456        3.61159862781677
H            0.59076889514147       -0.75414236730121        3.58600048499676
H           -0.26832773859133       -1.86527502616957        2.48832330774714
H            1.86966452693098       -2.35007407656784        1.28695258905694
H            2.74548497691270       -1.24807718724307        2.38735869386183
H            4.40654891038478        1.16037293314253       -1.36608465897926
H            4.30837676560472        2.64848379433410       -0.39109434324908
H            5.88325194839895        0.11107427572754        0.34944927863433
H            6.58651269098561        1.63449971211967       -0.23313627799563
H            5.78358329497842        1.58306013764815        1.34844567315087
H            0.64615457717924       -0.05925409898811       -2.93373245485475
H           -0.65212900618660        1.16387561277010       -2.81656936021898
H           -1.29002788086624        1.27868936972703        2.79107870939595
H           -2.08598332230809        2.33811468899414        1.60157784457533
H           -4.26378718329701        1.15596542947317        1.99538751788121
H           -3.45797342036949        0.04208412478861        3.12891361372531
H           -3.60744534792836        1.76646342710953        3.52368083179255
H           -5.23494159555537       -0.17586630843306       -1.26547845023750
H           -4.11775472462011       -1.29549676946110       -2.09285941873946
H           -6.20815073207688       -2.47213444350089       -1.39671710942591
H           -4.80193858623112       -3.13510697386241       -0.54033207570530
H           -5.91430791798554       -2.02074369981595        0.29424190298004
