 xtb: 6.7.1 (edcfbbe)
          04092505213D

 41 40  0     0  0            999 V2000
    5.6900   -0.9434    0.0647 C   0  0  0  0  0  0  0  0  0  0  0  0
    4.9359   -0.7558   -1.2352 C   0  0  0  0  0  0  0  0  0  0  0  0
    3.5344   -1.0731   -1.1037 O   0  0  0  0  0  0  0  0  0  0  0  0
    2.5471   -0.1972   -0.2301 P   0  0  0  0  0  0  0  0  0  0  0  0
    2.8655    1.7409   -0.2487 S   0  0  0  0  0  0  0  0  0  0  0  0
    2.6849   -0.8813    1.1996 O   0  0  0  0  0  0  0  0  0  0  0  0
    2.2430   -0.2559    2.4157 C   0  0  0  0  0  0  0  0  0  0  0  0
    0.7607   -0.4667    2.6489 C   0  0  0  0  0  0  0  0  0  0  0  0
    0.7340   -0.9164   -1.0616 S   0  0  0  0  0  0  0  0  0  0  0  0
    0.0190    0.6715   -1.5761 C   0  0  0  0  0  0  0  0  0  0  0  0
   -0.8956    1.5155   -0.2609 S   0  0  0  0  0  0  0  0  0  0  0  0
   -2.5817    0.2398   -0.3109 P   0  0  0  0  0  0  0  0  0  0  0  0
   -3.2614   -0.2328   -2.0802 S   0  0  0  0  0  0  0  0  0  0  0  0
   -3.6835    0.9621    0.5666 O   0  0  0  0  0  0  0  0  0  0  0  0
   -3.5028    1.2904    1.9678 C   0  0  0  0  0  0  0  0  0  0  0  0
   -3.0736    2.7339    2.1355 C   0  0  0  0  0  0  0  0  0  0  0  0
   -2.0226   -0.9777    0.5645 O   0  0  0  0  0  0  0  0  0  0  0  0
   -2.4640   -2.3309    0.3573 C   0  0  0  0  0  0  0  0  0  0  0  0
   -3.8559   -2.5443    0.9168 C   0  0  0  0  0  0  0  0  0  0  0  0
    5.5093   -1.9384    0.4627 H   0  0  0  0  0  0  0  0  0  0  0  0
    6.7526   -0.8125   -0.1152 H   0  0  0  0  0  0  0  0  0  0  0  0
    5.3617   -0.2054    0.7950 H   0  0  0  0  0  0  0  0  0  0  0  0
    5.2846   -1.4420   -2.0082 H   0  0  0  0  0  0  0  0  0  0  0  0
    5.0239    0.2771   -1.5869 H   0  0  0  0  0  0  0  0  0  0  0  0
    2.8398   -0.7335    3.1946 H   0  0  0  0  0  0  0  0  0  0  0  0
    2.4819    0.8121    2.3674 H   0  0  0  0  0  0  0  0  0  0  0  0
    0.1815    0.0486    1.8850 H   0  0  0  0  0  0  0  0  0  0  0  0
    0.5226   -1.5265    2.6123 H   0  0  0  0  0  0  0  0  0  0  0  0
    0.4918   -0.0687    3.6221 H   0  0  0  0  0  0  0  0  0  0  0  0
   -0.6644    0.4591   -2.3985 H   0  0  0  0  0  0  0  0  0  0  0  0
    0.8139    1.3504   -1.8816 H   0  0  0  0  0  0  0  0  0  0  0  0
   -4.4851    1.1176    2.4110 H   0  0  0  0  0  0  0  0  0  0  0  0
   -2.7717    0.6047    2.4022 H   0  0  0  0  0  0  0  0  0  0  0  0
   -2.0916    2.8964    1.6956 H   0  0  0  0  0  0  0  0  0  0  0  0
   -3.7863    3.3931    1.6479 H   0  0  0  0  0  0  0  0  0  0  0  0
   -3.0326    2.9705    3.1941 H   0  0  0  0  0  0  0  0  0  0  0  0
   -2.4395   -2.5463   -0.7154 H   0  0  0  0  0  0  0  0  0  0  0  0
   -1.7171   -2.9387    0.8693 H   0  0  0  0  0  0  0  0  0  0  0  0
   -4.5627   -1.9019    0.3917 H   0  0  0  0  0  0  0  0  0  0  0  0
   -4.1477   -3.5797    0.7730 H   0  0  0  0  0  0  0  0  0  0  0  0
   -3.8806   -2.3063    1.9769 H   0  0  0  0  0  0  0  0  0  0  0  0
  1  2  1  0  0  0  0
  2  3  1  0  0  0  0
  3  4  2  0  0  0  0
  4  5  2  0  0  0  0
  4  6  2  0  0  0  0
  6  7  1  0  0  0  0
  7  8  1  0  0  0  0
  4  9  1  0  0  0  0
  9 10  1  0  0  0  0
 10 11  1  0  0  0  0
 11 12  1  0  0  0  0
 12 13  2  0  0  0  0
 12 14  2  0  0  0  0
 14 15  1  0  0  0  0
 15 16  1  0  0  0  0
 12 17  1  0  0  0  0
 17 18  1  0  0  0  0
 18 19  1  0  0  0  0
  1 20  1  0  0  0  0
  1 21  1  0  0  0  0
  1 22  1  0  0  0  0
  2 23  1  0  0  0  0
  2 24  1  0  0  0  0
  7 25  1  0  0  0  0
  7 26  1  0  0  0  0
  8 27  1  0  0  0  0
  8 28  1  0  0  0  0
  8 29  1  0  0  0  0
 10 30  1  0  0  0  0
 10 31  1  0  0  0  0
 15 32  1  0  0  0  0
 15 33  1  0  0  0  0
 16 34  1  0  0  0  0
 16 35  1  0  0  0  0
 16 36  1  0  0  0  0
 18 37  1  0  0  0  0
 18 38  1  0  0  0  0
 19 39  1  0  0  0  0
 19 40  1  0  0  0  0
 19 41  1  0  0  0  0
M  END
