 xtb: 6.7.1 (edcfbbe)
          04092505213D

 41 40  0     0  0            999 V2000
    4.3356   -1.3937    1.1283 C   0  0  0  0  0  0  0  0  0  0  0  0
    4.3679   -1.2258   -0.3763 C   0  0  0  0  0  0  0  0  0  0  0  0
    3.0520   -1.0264   -0.9538 O   0  0  0  0  0  0  0  0  0  0  0  0
    2.1106    0.2172   -0.7098 P   0  0  0  0  0  0  0  0  0  0  0  0
    1.0156    0.5975   -2.2912 S   0  0  0  0  0  0  0  0  0  0  0  0
    3.1279    1.3672   -0.3075 O   0  0  0  0  0  0  0  0  0  0  0  0
    2.7781    2.7612   -0.3408 C   0  0  0  0  0  0  0  0  0  0  0  0
    1.8603    3.1402    0.8032 C   0  0  0  0  0  0  0  0  0  0  0  0
    1.1036   -0.2277    1.1211 S   0  0  0  0  0  0  0  0  0  0  0  0
    0.4308   -1.8433    0.6697 C   0  0  0  0  0  0  0  0  0  0  0  0
   -0.8709   -1.8009   -0.6099 S   0  0  0  0  0  0  0  0  0  0  0  0
   -2.1165   -0.2891    0.1926 P   0  0  0  0  0  0  0  0  0  0  0  0
   -1.6675    1.6191    0.0652 S   0  0  0  0  0  0  0  0  0  0  0  0
   -2.3486   -0.8550    1.6449 O   0  0  0  0  0  0  0  0  0  0  0  0
   -2.5111   -0.0359    2.8272 C   0  0  0  0  0  0  0  0  0  0  0  0
   -1.4438   -0.3973    3.8405 C   0  0  0  0  0  0  0  0  0  0  0  0
   -3.4987   -0.6349   -0.5149 O   0  0  0  0  0  0  0  0  0  0  0  0
   -3.8642   -0.1338   -1.8136 C   0  0  0  0  0  0  0  0  0  0  0  0
   -5.3717    0.0174   -1.8549 C   0  0  0  0  0  0  0  0  0  0  0  0
    5.3408   -1.6134    1.4747 H   0  0  0  0  0  0  0  0  0  0  0  0
    3.9902   -0.4793    1.6046 H   0  0  0  0  0  0  0  0  0  0  0  0
    3.6771   -2.2105    1.4121 H   0  0  0  0  0  0  0  0  0  0  0  0
    4.7189   -2.1302   -0.8761 H   0  0  0  0  0  0  0  0  0  0  0  0
    4.9941   -0.3783   -0.6593 H   0  0  0  0  0  0  0  0  0  0  0  0
    3.7398    3.2720   -0.2716 H   0  0  0  0  0  0  0  0  0  0  0  0
    2.3066    2.9805   -1.3042 H   0  0  0  0  0  0  0  0  0  0  0  0
    1.7371    4.2181    0.8222 H   0  0  0  0  0  0  0  0  0  0  0  0
    0.8794    2.6853    0.6682 H   0  0  0  0  0  0  0  0  0  0  0  0
    2.2764    2.8070    1.7504 H   0  0  0  0  0  0  0  0  0  0  0  0
    0.0165   -2.2675    1.5815 H   0  0  0  0  0  0  0  0  0  0  0  0
    1.2168   -2.4738    0.2583 H   0  0  0  0  0  0  0  0  0  0  0  0
   -2.4438    1.0184    2.5394 H   0  0  0  0  0  0  0  0  0  0  0  0
   -3.5127   -0.2504    3.2035 H   0  0  0  0  0  0  0  0  0  0  0  0
   -0.4563   -0.1720    3.4422 H   0  0  0  0  0  0  0  0  0  0  0  0
   -1.6040    0.1840    4.7424 H   0  0  0  0  0  0  0  0  0  0  0  0
   -1.4996   -1.4550    4.0814 H   0  0  0  0  0  0  0  0  0  0  0  0
   -3.3617    0.8264   -1.9779 H   0  0  0  0  0  0  0  0  0  0  0  0
   -3.5117   -0.8497   -2.5614 H   0  0  0  0  0  0  0  0  0  0  0  0
   -5.6672    0.3589   -2.8415 H   0  0  0  0  0  0  0  0  0  0  0  0
   -5.8437   -0.9380   -1.6454 H   0  0  0  0  0  0  0  0  0  0  0  0
   -5.6936    0.7419   -1.1119 H   0  0  0  0  0  0  0  0  0  0  0  0
  1  2  1  0  0  0  0
  2  3  1  0  0  0  0
  3  4  2  0  0  0  0
  4  5  2  0  0  0  0
  4  6  2  0  0  0  0
  6  7  1  0  0  0  0
  7  8  1  0  0  0  0
  4  9  1  0  0  0  0
  9 10  1  0  0  0  0
 10 11  1  0  0  0  0
 11 12  1  0  0  0  0
 12 13  2  0  0  0  0
 12 14  2  0  0  0  0
 14 15  1  0  0  0  0
 15 16  1  0  0  0  0
 12 17  2  0  0  0  0
 17 18  1  0  0  0  0
 18 19  1  0  0  0  0
  1 20  1  0  0  0  0
  1 21  1  0  0  0  0
  1 22  1  0  0  0  0
  2 23  1  0  0  0  0
  2 24  1  0  0  0  0
  7 25  1  0  0  0  0
  7 26  1  0  0  0  0
  8 27  1  0  0  0  0
  8 28  1  0  0  0  0
  8 29  1  0  0  0  0
 10 30  1  0  0  0  0
 10 31  1  0  0  0  0
 15 32  1  0  0  0  0
 15 33  1  0  0  0  0
 16 34  1  0  0  0  0
 16 35  1  0  0  0  0
 16 36  1  0  0  0  0
 18 37  1  0  0  0  0
 18 38  1  0  0  0  0
 19 39  1  0  0  0  0
 19 40  1  0  0  0  0
 19 41  1  0  0  0  0
M  END
