17
CONF2
C 2.4011738343 1.1051548002 -0.0014999403
C 1.1511229801 0.2817837983 0.0016590590
C 1.1919759546 -1.1082428971 0.0011173543
C -0.0025404438 -1.8108608292 -0.0001458291
C -1.1926533242 -1.1072166666 -0.0010236516
C -1.1454658969 0.2858152935 -0.0007785025
N 0.0013769221 0.9512044406 0.0005628012
C -2.4020503290 1.0995967087 0.0006573499
H 2.3804939692 1.8087110562 0.8270815651
H 3.2810434694 0.4738944013 0.0784644078
H 2.4563061103 1.6834805961 -0.9211247235
H 2.1384983366 -1.6261337250 0.0017992935
H -0.0025217099 -2.8913732511 -0.0005357330
H -2.1433781205 -1.6173231261 -0.0018767312
H -2.9721179525 0.9030036496 0.9065585133
H -2.1542856353 2.1550806837 -0.0445750493
H -3.0217968020 0.8352315346 -0.8534439966
17
CONF1
C 2.4050075642 1.0985583642 -0.0000856063
C 1.1476116398 0.2859819970 0.0001016786
C 1.1919651610 -1.1057304838 0.0001368856
C 0.0000125096 -1.8092693654 -0.0000217610
C -1.1919558118 -1.1057419352 -0.0001302202
C -1.1476277437 0.2859626886 -0.0000403440
N -0.0000084495 0.9543133024 0.0000368801
C -2.4050094684 1.0985541276 0.0000479540
H 2.9978512333 0.8703632325 -0.8835434931
H 2.1577032302 2.1551449276 0.0041200587
H 3.0025339182 0.8640697632 0.8785083381
H 2.1417790750 -1.6176094246 0.0002192114
H 0.0000131964 -2.8897653111 -0.0000332518
H -2.1417539948 -1.6176460993 -0.0002126381
H -3.0006678621 0.8666598285 -0.8804946921
H -2.9997142671 0.8677905554 0.8815358105
H -2.1576729947 2.1551285352 -0.0007141908
