17
CONF2
C 2.4260894645 1.0969117044 -0.0017723623
C 1.1653384881 0.2871034872 0.0031824784
C 1.1979343824 -1.1053627375 0.0041070948
C -0.0040934469 -1.8062764611 0.0002178259
C -1.1955775062 -1.0988963661 -0.0035684167
C -1.1529721425 0.2989608456 -0.0024950485
N 0.0059067909 0.9761548855 0.0003798689
C -2.4255884730 1.0923540961 0.0004222328
H 2.4331670856 1.8043912788 0.8336662846
H 3.3085532235 0.4578032531 0.0707657162
H 2.4983527058 1.6854718625 -0.9231043651
H 2.1485382969 -1.6280980440 0.0072492940
H -0.0073892201 -2.8920016979 0.0002391488
H -2.1521907825 -1.6117135261 -0.0061356037
H -3.0045307937 0.8872466579 0.9076291507
H -2.2195297393 2.1627615669 -0.0475046366
H -3.0568258044 0.8149947935 -0.8503821943
17
CONF1
C 2.4332387563 1.0895144070 -0.0000926259
C 1.1592487507 0.2978527047 0.0002026191
C 1.1963379643 -1.0972566036 0.0002225120
C 0.0000069057 -1.8016121540 0.0000041926
C -1.1963259728 -1.0972598994 -0.0001448793
C -1.1592408569 0.2978496494 -0.0000560738
N 0.0000029002 0.9818224142 0.0000866609
C -2.4332335166 1.0895070721 0.0000030272
H 3.0361938974 0.8511326317 -0.8829318396
H 2.2275960622 2.1610875342 0.0044785928
H 3.0411529041 0.8442491432 0.8773928830
H 2.1505470064 -1.6145985104 0.0003673727
H 0.0000082063 -2.8873590320 -0.0000185039
H -2.1505333295 -1.6146048989 -0.0002610834
H -3.0391497797 0.8470310232 -0.8796569427
H -3.0381933304 0.8483211386 0.8806861256
H -2.2275884571 2.1610888383 -0.0008505308
