38
 xtb: 6.7.1 (edcfbbe)
C            5.24159702982979        0.09455932685877       -0.80776608072534
C            4.81346578354709       -1.27950651820481       -1.26730469061125
O            3.54186571589678       -1.66474678767104       -0.64290093730272
C            2.42498566868644       -1.19176372767433       -1.20983465379260
O            2.39885519193703       -0.49708834116100       -2.20967247406885
C            1.18589628072399       -1.67629825448316       -0.49093825717951
C            0.19047142995477       -0.52544468825804       -0.26550839052615
H            0.12712774841920        0.08426370827079       -1.17369651844950
C            0.65726709405566        0.36802764039227        0.87955228695515
O            0.04174717321587        0.60634501670956        1.89764796785238
O            1.86969313652218        0.84915828432133        0.58702315582142
C            2.54540733896560        1.64503905611700        1.62099270002999
C            3.17417566718320        0.74396747409801        2.65651527652683
S           -1.47187994948033       -1.25106502780720        0.03908631352340
P           -2.71552304897774        0.46562388404693       -0.11662188852836
S           -2.07718589853518        1.86416870657213       -1.30223852422144
O           -4.12587512677761       -0.24125666585980       -0.44896699872975
C           -4.39766560359326       -0.74789706087411       -1.78640374783151
O           -3.01024602716645        1.03582982434924        1.35262054219119
C           -3.42914338702530        0.15903592170936        2.44009558648616
H            6.21468554165768        0.32648848402286       -1.25249715464674
H            4.52991847121756        0.86237816655129       -1.12227167408676
H            5.34695402499003        0.12571298885882        0.28035359774801
H            5.50951926791818       -2.05071179743309       -0.93359285804627
H            4.70047972962692       -1.33781991438727       -2.35250233961140
H            1.44862613802085       -2.16381262686148        0.45018649701415
H            0.73242598387579       -2.42411529846568       -1.15227273954430
H            3.29551337736006        2.20720802233845        1.06257343828941
H            1.81946183144156        2.33777237734259        2.05326187485325
H            3.74906519629289        1.35797790003602        3.35694567025678
H            2.41782495754781        0.19385920768608        3.22251919600664
H            3.85579284778563        0.03087467223486        2.18383673657547
H           -3.65570099643986       -1.49915980288324       -2.07036238802191
H           -4.40001701692063        0.07723428212099       -2.50296103199843
H           -5.38667045822760       -1.20238014463304       -1.73085822094405
H           -3.53839765020572        0.80855990873040        3.30833106069591
H           -2.66123286009917       -0.59504703098959        2.63130073913514
H           -4.38417873467003       -0.31375750616713        2.19983372350721
