  21
 
 C         -3.0671664338        0.3879604392        0.0425776645
 C         -1.6070826827        0.0475643141        0.0400738986
 C         -1.1801985467       -1.2725318358        0.0457370095
 C          0.1699689699       -1.5714434517        0.0224647628
 C          1.1302374454       -0.5703575273       -0.0069573804
 C          0.7119347699        0.7636723318       -0.0132482232
 C         -0.6453459660        1.0485000705        0.0098315871
 C          1.7154015624        1.8761142772       -0.0414675521
 C          2.5878513642       -0.9163744683       -0.0283838810
 H         -3.4277319632        0.4864460738       -0.9815304124
 H         -3.6451566821       -0.3933685935        0.5301526440
 H         -3.2433586181        1.3313379279        0.5538845180
 H         -1.9068585401       -2.0721366865        0.0699586480
 H          0.4843182277       -2.6059177031        0.0292716335
 H         -0.9647713403        2.0819184811        0.0058174522
 H          2.3347578443        1.8095209950       -0.9346639465
 H          1.2184029082        2.8425971097       -0.0348902468
 H          2.3743668832        1.8183735061        0.8239178984
 H          3.0653963475       -0.5092825584       -0.9183895845
 H          3.0942045890       -0.4978776634        0.8406026569
 H          2.7257148196       -1.9939991708       -0.0239531035
          21
        -25.39292586
 C         -3.0652664824        0.3928571652        0.0020308453
 C         -1.6074228946        0.0424512098       -0.0014916240
 C         -1.1781588127       -1.2755129641       -0.0008226886
 C          0.1739397905       -1.5712203249       -0.0003743013
 C          1.1317933119       -0.5686127176        0.0000170512
 C          0.7104487501        0.7655144588       -0.0006454129
 C         -0.6466179464        1.0465769420       -0.0016771747
 C          1.7122768246        1.8798885299        0.0003409473
 C          2.5906549781       -0.9103708460        0.0012631506
 H         -3.3191062464        0.9417209151        0.9079548198
 H         -3.3054100023        1.0268610038       -0.8499627693
 H         -3.6791090198       -0.5028037745       -0.0448512059
 H         -1.9021276869       -2.0780526136       -0.0013559251
 H          0.4900449633       -2.6052236308       -0.0006865621
 H         -0.9706286548        2.0786235572       -0.0019834910
 H          2.3509717285        1.8182151531        0.8803288184
 H          2.3529100005        1.8187713903       -0.8782701741
 H          1.2133966037        2.8452266644        0.0002043233
 H          3.0825441520       -0.4940211756       -0.8769609749
 H          3.0800484774       -0.4967648473        0.8820510997
 H          2.7318666652       -1.9879080576       -0.0002704823
