 xtb: 6.7.1 (edcfbbe)
          04092507313D

 38 37  0     0  0            999 V2000
    5.3507   -2.2195   -0.8097 C   0  0  0  0  0  0  0  0  0  0  0  0
    4.6631   -1.0596   -0.1071 C   0  0  0  0  0  0  0  0  0  0  0  0
    3.2359   -1.2542   -0.0577 O   0  0  0  0  0  0  0  0  0  0  0  0
    2.5205   -0.8878   -1.0993 C   0  0  0  0  0  0  0  0  0  0  0  0
    2.9673   -0.3756   -2.1017 O   0  0  0  0  0  0  0  0  0  0  0  0
    1.0461   -1.1924   -0.8954 C   0  0  0  0  0  0  0  0  0  0  0  0
    0.2188   -0.0034   -1.3734 C   0  0  0  0  0  0  0  0  0  0  0  0
    0.5563    0.2805   -2.3769 H   0  0  0  0  0  0  0  0  0  0  0  0
    0.3640    1.2040   -0.4663 C   0  0  0  0  0  0  0  0  0  0  0  0
   -0.5903    1.8785   -0.1301 O   0  0  0  0  0  0  0  0  0  0  0  0
    1.6042    1.4186   -0.1315 O   0  0  0  0  0  0  0  0  0  0  0  0
    1.9125    2.4821    0.7990 C   0  0  0  0  0  0  0  0  0  0  0  0
    2.1893    1.8925    2.1714 C   0  0  0  0  0  0  0  0  0  0  0  0
   -1.5539   -0.3777   -1.5449 S   0  0  0  0  0  0  0  0  0  0  0  0
   -2.1977   -0.1126    0.4457 P   0  0  0  0  0  0  0  0  0  0  0  0
   -1.0274   -0.3293    1.9972 S   0  0  0  0  0  0  0  0  0  0  0  0
   -3.1117    1.1870    0.6009 O   0  0  0  0  0  0  0  0  0  0  0  0
   -3.9434    1.6594   -0.4716 C   0  0  0  0  0  0  0  0  0  0  0  0
   -3.2682   -1.3187    0.3171 O   0  0  0  0  0  0  0  0  0  0  0  0
   -4.0571   -1.7021    1.4469 C   0  0  0  0  0  0  0  0  0  0  0  0
    5.0424   -2.2609   -1.8517 H   0  0  0  0  0  0  0  0  0  0  0  0
    6.4256   -2.0787   -0.7657 H   0  0  0  0  0  0  0  0  0  0  0  0
    5.0916   -3.1568   -0.3251 H   0  0  0  0  0  0  0  0  0  0  0  0
    4.8665   -0.1180   -0.6246 H   0  0  0  0  0  0  0  0  0  0  0  0
    4.9646   -0.9953    0.9385 H   0  0  0  0  0  0  0  0  0  0  0  0
    0.8631   -1.4170    0.1565 H   0  0  0  0  0  0  0  0  0  0  0  0
    0.7905   -2.0652   -1.4996 H   0  0  0  0  0  0  0  0  0  0  0  0
    2.7964    2.9693    0.3853 H   0  0  0  0  0  0  0  0  0  0  0  0
    1.0693    3.1767    0.8271 H   0  0  0  0  0  0  0  0  0  0  0  0
    3.0018    1.1740    2.1132 H   0  0  0  0  0  0  0  0  0  0  0  0
    2.4593    2.6896    2.8558 H   0  0  0  0  0  0  0  0  0  0  0  0
    1.3036    1.3841    2.5484 H   0  0  0  0  0  0  0  0  0  0  0  0
   -4.7024    2.2786    0.0001 H   0  0  0  0  0  0  0  0  0  0  0  0
   -4.3979    0.8224   -1.0033 H   0  0  0  0  0  0  0  0  0  0  0  0
   -3.3367    2.2522   -1.1554 H   0  0  0  0  0  0  0  0  0  0  0  0
   -3.4072   -1.9836    2.2773 H   0  0  0  0  0  0  0  0  0  0  0  0
   -4.6443   -2.5548    1.1162 H   0  0  0  0  0  0  0  0  0  0  0  0
   -4.7073   -0.8830    1.7575 H   0  0  0  0  0  0  0  0  0  0  0  0
  1  2  1  0  0  0  0
  2  3  1  0  0  0  0
  3  4  1  0  0  0  0
  4  5  2  0  0  0  0
  4  6  1  0  0  0  0
  6  7  1  0  0  0  0
  7  8  1  0  0  0  0
  7  9  1  0  0  0  0
  9 10  2  0  0  0  0
  9 11  4  0  0  0  0
 11 12  1  0  0  0  0
 12 13  1  0  0  0  0
  7 14  1  0  0  0  0
 14 15  1  0  0  0  0
 15 16  2  0  0  0  0
 15 17  1  0  0  0  0
 17 18  1  0  0  0  0
 15 19  1  0  0  0  0
 19 20  1  0  0  0  0
  1 21  1  0  0  0  0
  1 22  1  0  0  0  0
  1 23  1  0  0  0  0
  2 24  1  0  0  0  0
  2 25  1  0  0  0  0
  6 26  1  0  0  0  0
  6 27  1  0  0  0  0
 12 28  1  0  0  0  0
 12 29  1  0  0  0  0
 13 30  1  0  0  0  0
 13 31  1  0  0  0  0
 13 32  1  0  0  0  0
 18 33  1  0  0  0  0
 18 34  1  0  0  0  0
 18 35  1  0  0  0  0
 20 36  1  0  0  0  0
 20 37  1  0  0  0  0
 20 38  1  0  0  0  0
M  END
