 xtb: 6.7.1 (edcfbbe)
          04092505213D

 41 40  0     0  0            999 V2000
    4.5129   -1.2113    0.8015 C   0  0  0  0  0  0  0  0  0  0  0  0
    4.7683   -0.4677   -0.4923 C   0  0  0  0  0  0  0  0  0  0  0  0
    3.5860   -0.3676   -1.3253 O   0  0  0  0  0  0  0  0  0  0  0  0
    2.2488    0.3783   -0.9508 P   0  0  0  0  0  0  0  0  0  0  0  0
    1.2684    0.8231   -2.5893 S   0  0  0  0  0  0  0  0  0  0  0  0
    2.7885    1.5881   -0.0799 O   0  0  0  0  0  0  0  0  0  0  0  0
    1.9383    2.5137    0.6269 C   0  0  0  0  0  0  0  0  0  0  0  0
    2.0099    2.2367    2.1161 C   0  0  0  0  0  0  0  0  0  0  0  0
    1.1742   -0.8618    0.4124 S   0  0  0  0  0  0  0  0  0  0  0  0
    0.0053   -1.5997   -0.7728 C   0  0  0  0  0  0  0  0  0  0  0  0
   -1.5160   -2.1536    0.0239 S   0  0  0  0  0  0  0  0  0  0  0  0
   -2.4325   -0.2823    0.4950 P   0  0  0  0  0  0  0  0  0  0  0  0
   -1.5506    1.3358   -0.1943 S   0  0  0  0  0  0  0  0  0  0  0  0
   -2.6866   -0.3779    2.0519 O   0  0  0  0  0  0  0  0  0  0  0  0
   -1.6094   -0.3839    3.0121 C   0  0  0  0  0  0  0  0  0  0  0  0
   -1.3276    1.0210    3.5085 C   0  0  0  0  0  0  0  0  0  0  0  0
   -3.9504   -0.4435    0.0843 O   0  0  0  0  0  0  0  0  0  0  0  0
   -4.4378   -0.0438   -1.2068 C   0  0  0  0  0  0  0  0  0  0  0  0
   -3.8851   -0.9119   -2.3203 C   0  0  0  0  0  0  0  0  0  0  0  0
    3.8189   -0.6555    1.4289 H   0  0  0  0  0  0  0  0  0  0  0  0
    4.0927   -2.1933    0.6006 H   0  0  0  0  0  0  0  0  0  0  0  0
    5.4532   -1.3273    1.3314 H   0  0  0  0  0  0  0  0  0  0  0  0
    5.4738   -1.0015   -1.1310 H   0  0  0  0  0  0  0  0  0  0  0  0
    5.1330    0.5425   -0.2991 H   0  0  0  0  0  0  0  0  0  0  0  0
    2.3284    3.5043    0.3858 H   0  0  0  0  0  0  0  0  0  0  0  0
    0.9144    2.4340    0.2501 H   0  0  0  0  0  0  0  0  0  0  0  0
    1.6305    1.2405    2.3320 H   0  0  0  0  0  0  0  0  0  0  0  0
    3.0388    2.3075    2.4572 H   0  0  0  0  0  0  0  0  0  0  0  0
    1.4066    2.9698    2.6417 H   0  0  0  0  0  0  0  0  0  0  0  0
    0.4515   -2.4883   -1.2125 H   0  0  0  0  0  0  0  0  0  0  0  0
   -0.2109   -0.8479   -1.5373 H   0  0  0  0  0  0  0  0  0  0  0  0
   -1.9660   -1.0278    3.8181 H   0  0  0  0  0  0  0  0  0  0  0  0
   -0.7158   -0.8291    2.5602 H   0  0  0  0  0  0  0  0  0  0  0  0
   -0.5349    0.9889    4.2488 H   0  0  0  0  0  0  0  0  0  0  0  0
   -1.0205    1.6551    2.6800 H   0  0  0  0  0  0  0  0  0  0  0  0
   -2.2230    1.4440    3.9550 H   0  0  0  0  0  0  0  0  0  0  0  0
   -5.5206   -0.1437   -1.1198 H   0  0  0  0  0  0  0  0  0  0  0  0
   -4.1750    1.0064   -1.3724 H   0  0  0  0  0  0  0  0  0  0  0  0
   -2.8171   -0.7298   -2.4421 H   0  0  0  0  0  0  0  0  0  0  0  0
   -4.0407   -1.9634   -2.0921 H   0  0  0  0  0  0  0  0  0  0  0  0
   -4.3856   -0.6661   -3.2515 H   0  0  0  0  0  0  0  0  0  0  0  0
  1  2  1  0  0  0  0
  2  3  1  0  0  0  0
  3  4  2  0  0  0  0
  4  5  2  0  0  0  0
  4  6  2  0  0  0  0
  6  7  1  0  0  0  0
  7  8  1  0  0  0  0
  4  9  1  0  0  0  0
  9 10  1  0  0  0  0
 10 11  1  0  0  0  0
 11 12  1  0  0  0  0
 12 13  2  0  0  0  0
 12 14  2  0  0  0  0
 14 15  1  0  0  0  0
 15 16  1  0  0  0  0
 12 17  2  0  0  0  0
 17 18  1  0  0  0  0
 18 19  1  0  0  0  0
  1 20  1  0  0  0  0
  1 21  1  0  0  0  0
  1 22  1  0  0  0  0
  2 23  1  0  0  0  0
  2 24  1  0  0  0  0
  7 25  1  0  0  0  0
  7 26  1  0  0  0  0
  8 27  1  0  0  0  0
  8 28  1  0  0  0  0
  8 29  1  0  0  0  0
 10 30  1  0  0  0  0
 10 31  1  0  0  0  0
 15 32  1  0  0  0  0
 15 33  1  0  0  0  0
 16 34  1  0  0  0  0
 16 35  1  0  0  0  0
 16 36  1  0  0  0  0
 18 37  1  0  0  0  0
 18 38  1  0  0  0  0
 19 39  1  0  0  0  0
 19 40  1  0  0  0  0
 19 41  1  0  0  0  0
M  END
