  21
 
 C          1.7985806253        1.3167029036       -0.8626039344
 C          1.4212894484       -0.0780489757       -0.3924469322
 C          2.5735264079       -0.7705093507        0.3172850771
 S         -0.0045620860        0.0043603729        0.7795864920
 C         -1.4289940800        0.0779750958       -0.3946506589
 C         -1.8027721693       -1.3198315946       -0.8586399836
 C         -2.5838138046        0.7710644558        0.3102889489
 H          0.9571532075        1.8083833654       -1.3464475095
 H          2.1097357823        1.9230137196       -0.0149814709
 H          2.6193279874        1.2581644151       -1.5744925678
 H          1.0792124284       -0.6866592584       -1.2331301909
 H          2.2738098355       -1.7597804410        0.6546177429
 H          2.8798089041       -0.1903526319        1.1850097841
 H          3.4208122169       -0.8682411535       -0.3576046123
 H         -1.0873425471        0.6834455466       -1.2378795713
 H         -2.6220298406       -1.2663648465       -1.5727054757
 H         -0.9593772603       -1.8123445551       -1.3382422112
 H         -2.1148532847       -1.9225149823       -0.0087918535
 H         -3.4297221948        0.8653374618       -0.3667559849
 H         -2.2862202720        1.7618566005        0.6448370670
 H         -2.8912653979        0.1933417384        1.1791733090
          21
        -23.23607913
 C          2.0308719735        1.2768804199       -0.3547940117
 C          1.2025205064        0.0037444725       -0.4133509973
 C          2.0656980750       -1.2468675739       -0.3741870977
 S          0.0236100932       -0.0251109988        1.0121065012
 C         -1.6390907433       -0.0034487998        0.2146243020
 C         -1.8653315571        1.2784033193       -0.5696347523
 C         -1.8775131486       -1.2567481529       -0.6111816925
 H          2.6157370396        1.3001144397        0.5619747741
 H          2.7086720450        1.3195821143       -1.2048830954
 H          1.3877309813        2.1534818843       -0.3736375933
 H          0.5838951635        0.0014733191       -1.3113380295
 H          1.4465777743       -2.1401876621       -0.4085123446
 H          2.6498671284       -1.2692727633        0.5430588252
 H          2.7454082441       -1.2568802516       -1.2237636660
 H         -2.2914088739       -0.0148196028        1.0922254108
 H         -1.6672600063        2.1442817914        0.0577181513
 H         -1.2172665894        1.3249787740       -1.4422115236
 H         -2.8979615471        1.3212795702       -0.9087132581
 H         -1.6852023168       -2.1444439081       -0.0132356492
 H         -1.2314160370       -1.2800229056       -1.4862600475
 H         -2.9111288957       -1.2800600859       -0.9492437307
