 xtb: 6.7.1 (edcfbbe)
          04092509483D

 38 37  0     0  0            999 V2000
    5.8691   -2.1787   -1.0699 C   0  0  0  0  0  0  0  0  0  0  0  0
    4.8483   -1.0981   -1.3686 C   0  0  0  0  0  0  0  0  0  0  0  0
    3.5556   -1.5743   -0.9451 O   0  0  0  0  0  0  0  0  0  0  0  0
    2.4949   -0.8741   -1.2876 C   0  0  0  0  0  0  0  0  0  0  0  0
    2.5310    0.1558   -1.9242 O   0  0  0  0  0  0  0  0  0  0  0  0
    1.2197   -1.5471   -0.8163 C   0  0  0  0  0  0  0  0  0  0  0  0
    0.2193   -0.5092   -0.3301 C   0  0  0  0  0  0  0  0  0  0  0  0
    0.1086    0.2855   -1.0824 H   0  0  0  0  0  0  0  0  0  0  0  0
    0.6296    0.1914    0.9529 C   0  0  0  0  0  0  0  0  0  0  0  0
   -0.1758    0.5603    1.7809 O   0  0  0  0  0  0  0  0  0  0  0  0
    1.9292    0.3556    1.0180 O   0  0  0  0  0  0  0  0  0  0  0  0
    2.4913    1.1445    2.0903 C   0  0  0  0  0  0  0  0  0  0  0  0
    2.4223    2.6264    1.7605 C   0  0  0  0  0  0  0  0  0  0  0  0
   -1.4164   -1.2763   -0.0937 S   0  0  0  0  0  0  0  0  0  0  0  0
   -2.6021    0.4723    0.0837 P   0  0  0  0  0  0  0  0  0  0  0  0
   -1.8825    2.1038   -0.7190 S   0  0  0  0  0  0  0  0  0  0  0  0
   -3.9926   -0.0241   -0.5479 O   0  0  0  0  0  0  0  0  0  0  0  0
   -4.1660   -0.2602   -1.9495 C   0  0  0  0  0  0  0  0  0  0  0  0
   -3.0474    0.6554    1.5854 O   0  0  0  0  0  0  0  0  0  0  0  0
   -3.6162   -0.4242    2.3517 C   0  0  0  0  0  0  0  0  0  0  0  0
    5.6342   -3.0802   -1.6279 H   0  0  0  0  0  0  0  0  0  0  0  0
    6.8554   -1.8285   -1.3556 H   0  0  0  0  0  0  0  0  0  0  0  0
    5.8643   -2.4121   -0.0096 H   0  0  0  0  0  0  0  0  0  0  0  0
    4.7981   -0.8657   -2.4368 H   0  0  0  0  0  0  0  0  0  0  0  0
    5.0651   -0.1728   -0.8263 H   0  0  0  0  0  0  0  0  0  0  0  0
    1.4566   -2.2705   -0.0377 H   0  0  0  0  0  0  0  0  0  0  0  0
    0.7857   -2.0745   -1.6684 H   0  0  0  0  0  0  0  0  0  0  0  0
    1.9497    0.9217    3.0132 H   0  0  0  0  0  0  0  0  0  0  0  0
    3.5239    0.8007    2.1597 H   0  0  0  0  0  0  0  0  0  0  0  0
    2.9071    3.1953    2.5470 H   0  0  0  0  0  0  0  0  0  0  0  0
    2.9192    2.8238    0.8138 H   0  0  0  0  0  0  0  0  0  0  0  0
    1.3848    2.9456    1.6802 H   0  0  0  0  0  0  0  0  0  0  0  0
   -5.2314   -0.4311   -2.0858 H   0  0  0  0  0  0  0  0  0  0  0  0
   -3.5964   -1.1373   -2.2561 H   0  0  0  0  0  0  0  0  0  0  0  0
   -3.8451    0.6124   -2.5200 H   0  0  0  0  0  0  0  0  0  0  0  0
   -2.9540   -1.2897    2.3199 H   0  0  0  0  0  0  0  0  0  0  0  0
   -4.5950   -0.6848    1.9531 H   0  0  0  0  0  0  0  0  0  0  0  0
   -3.6959   -0.0404    3.3652 H   0  0  0  0  0  0  0  0  0  0  0  0
  1  2  1  0  0  0  0
  2  3  1  0  0  0  0
  3  4  1  0  0  0  0
  4  5  2  0  0  0  0
  4  6  1  0  0  0  0
  6  7  1  0  0  0  0
  7  8  1  0  0  0  0
  7  9  1  0  0  0  0
  9 10  2  0  0  0  0
  9 11  4  0  0  0  0
 11 12  1  0  0  0  0
 12 13  1  0  0  0  0
  7 14  1  0  0  0  0
 14 15  1  0  0  0  0
 15 16  2  0  0  0  0
 15 17  1  0  0  0  0
 17 18  1  0  0  0  0
 15 19  2  0  0  0  0
 19 20  1  0  0  0  0
  1 21  1  0  0  0  0
  1 22  1  0  0  0  0
  1 23  1  0  0  0  0
  2 24  1  0  0  0  0
  2 25  1  0  0  0  0
  6 26  1  0  0  0  0
  6 27  1  0  0  0  0
 12 28  1  0  0  0  0
 12 29  1  0  0  0  0
 13 30  1  0  0  0  0
 13 31  1  0  0  0  0
 13 32  1  0  0  0  0
 18 33  1  0  0  0  0
 18 34  1  0  0  0  0
 18 35  1  0  0  0  0
 20 36  1  0  0  0  0
 20 37  1  0  0  0  0
 20 38  1  0  0  0  0
M  END
