 xtb: 6.7.1 (edcfbbe)
          04092509473D

 38 37  0     0  0            999 V2000
    4.6338   -4.2652   -1.2168 C   0  0  0  0  0  0  0  0  0  0  0  0
    3.5295   -3.3696   -1.7415 C   0  0  0  0  0  0  0  0  0  0  0  0
    3.2407   -2.3806   -0.7333 O   0  0  0  0  0  0  0  0  0  0  0  0
    2.3079   -1.4910   -0.9992 C   0  0  0  0  0  0  0  0  0  0  0  0
    1.6648   -1.4627   -2.0253 O   0  0  0  0  0  0  0  0  0  0  0  0
    2.1587   -0.4940    0.1339 C   0  0  0  0  0  0  0  0  0  0  0  0
    0.8023    0.1916    0.0610 C   0  0  0  0  0  0  0  0  0  0  0  0
    0.5942    0.4787   -0.9780 H   0  0  0  0  0  0  0  0  0  0  0  0
    0.7092    1.4487    0.9085 C   0  0  0  0  0  0  0  0  0  0  0  0
   -0.2034    1.6638    1.6755 O   0  0  0  0  0  0  0  0  0  0  0  0
    1.7254    2.2432    0.6778 O   0  0  0  0  0  0  0  0  0  0  0  0
    1.7765    3.5333    1.3254 C   0  0  0  0  0  0  0  0  0  0  0  0
    0.9670    4.5624    0.5543 C   0  0  0  0  0  0  0  0  0  0  0  0
   -0.5018   -0.9781    0.5744 S   0  0  0  0  0  0  0  0  0  0  0  0
   -2.2013    0.1936    0.1025 P   0  0  0  0  0  0  0  0  0  0  0  0
   -1.9613    1.6260   -1.2053 S   0  0  0  0  0  0  0  0  0  0  0  0
   -3.2588   -0.9362   -0.3340 O   0  0  0  0  0  0  0  0  0  0  0  0
   -3.1590   -1.6530   -1.5680 C   0  0  0  0  0  0  0  0  0  0  0  0
   -2.8852    0.6857    1.4358 O   0  0  0  0  0  0  0  0  0  0  0  0
   -3.1126   -0.1940    2.5539 C   0  0  0  0  0  0  0  0  0  0  0  0
    5.5176   -3.6747   -0.9952 H   0  0  0  0  0  0  0  0  0  0  0  0
    4.3090   -4.7647   -0.3092 H   0  0  0  0  0  0  0  0  0  0  0  0
    4.8786   -5.0089   -1.9676 H   0  0  0  0  0  0  0  0  0  0  0  0
    2.6121   -3.9290   -1.9481 H   0  0  0  0  0  0  0  0  0  0  0  0
    3.8269   -2.8480   -2.6565 H   0  0  0  0  0  0  0  0  0  0  0  0
    2.9452    0.2565    0.0269 H   0  0  0  0  0  0  0  0  0  0  0  0
    2.2935   -1.0114    1.0838 H   0  0  0  0  0  0  0  0  0  0  0  0
    1.4032    3.4276    2.3471 H   0  0  0  0  0  0  0  0  0  0  0  0
    2.8373    3.7852    1.3276 H   0  0  0  0  0  0  0  0  0  0  0  0
    1.0602    5.5290    1.0383 H   0  0  0  0  0  0  0  0  0  0  0  0
    1.3268    4.6364   -0.4684 H   0  0  0  0  0  0  0  0  0  0  0  0
   -0.0832    4.2771    0.5322 H   0  0  0  0  0  0  0  0  0  0  0  0
   -4.0300   -2.3038   -1.5971 H   0  0  0  0  0  0  0  0  0  0  0  0
   -2.2412   -2.2412   -1.5933 H   0  0  0  0  0  0  0  0  0  0  0  0
   -3.1740   -0.9575   -2.4080 H   0  0  0  0  0  0  0  0  0  0  0  0
   -2.1622   -0.6031    2.8969 H   0  0  0  0  0  0  0  0  0  0  0  0
   -3.7875   -0.9974    2.2640 H   0  0  0  0  0  0  0  0  0  0  0  0
   -3.5583    0.4339    3.3204 H   0  0  0  0  0  0  0  0  0  0  0  0
  1  2  1  0  0  0  0
  2  3  1  0  0  0  0
  3  4  1  0  0  0  0
  4  5  2  0  0  0  0
  4  6  1  0  0  0  0
  6  7  1  0  0  0  0
  7  8  1  0  0  0  0
  7  9  1  0  0  0  0
  9 10  2  0  0  0  0
  9 11  4  0  0  0  0
 11 12  1  0  0  0  0
 12 13  1  0  0  0  0
  7 14  1  0  0  0  0
 14 15  1  0  0  0  0
 15 16  2  0  0  0  0
 15 17  1  0  0  0  0
 17 18  1  0  0  0  0
 15 19  2  0  0  0  0
 19 20  1  0  0  0  0
  1 21  1  0  0  0  0
  1 22  1  0  0  0  0
  1 23  1  0  0  0  0
  2 24  1  0  0  0  0
  2 25  1  0  0  0  0
  6 26  1  0  0  0  0
  6 27  1  0  0  0  0
 12 28  1  0  0  0  0
 12 29  1  0  0  0  0
 13 30  1  0  0  0  0
 13 31  1  0  0  0  0
 13 32  1  0  0  0  0
 18 33  1  0  0  0  0
 18 34  1  0  0  0  0
 18 35  1  0  0  0  0
 20 36  1  0  0  0  0
 20 37  1  0  0  0  0
 20 38  1  0  0  0  0
M  END
