20
 xtb: 6.7.1 (edcfbbe)
C            0.87488535676181        1.39768159596552       -0.63856440472636
C            1.59529316480174        0.19207792494599       -0.05629127223788
H            2.56833718536876        0.08996366642795       -0.55219626208631
C            0.77753318486478       -1.08831080009268       -0.29995350392070
H            1.20969300939510       -1.91001168398391        0.28976305927009
C           -0.68374534250170       -0.89414690863742        0.12698083773129
H           -1.28369599924272       -1.74280881568006       -0.22698149547972
C           -1.26321145218633        0.39133428009445       -0.45941759064936
H           -1.31195983323595        0.31784580271540       -1.55429989810562
O           -0.45315456975753        1.51665307199001       -0.09389332245124
O           -2.56597333154263        0.63615762601667        0.00127697539899
O           -0.77708750448324       -0.76375936485282        1.55391455097812
O            0.75076203997770       -1.41990263303421       -1.69191172368762
O            1.86400063075387        0.36316979063799        1.34303071481891
H            0.82464465893977        1.31473153305399       -1.73434314429125
H            1.39943708353297        2.31936431722422       -0.37581601274176
H           -2.57677694229403        0.44127791078559        0.95123243656140
H           -0.60565950915983       -1.63241144107191        1.94170674178627
H            1.65996416195705       -1.59762291052189       -1.96770403427316
H            1.01477025138873        0.25572824491080        1.80155209343151
