 xtb: 6.7.1 (edcfbbe)
          04092505203D

 41 40  0     0  0            999 V2000
    2.8398    1.7758   -2.1345 C   0  0  0  0  0  0  0  0  0  0  0  0
    3.1586    0.2959   -2.1230 C   0  0  0  0  0  0  0  0  0  0  0  0
    2.2900   -0.4528   -1.2477 O   0  0  0  0  0  0  0  0  0  0  0  0
    2.1208   -0.2150    0.3077 P   0  0  0  0  0  0  0  0  0  0  0  0
    1.0769    1.3321    0.9350 S   0  0  0  0  0  0  0  0  0  0  0  0
    3.6284   -0.1978    0.8068 O   0  0  0  0  0  0  0  0  0  0  0  0
    3.9950    0.2552    2.1217 C   0  0  0  0  0  0  0  0  0  0  0  0
    3.5291   -0.7052    3.1960 C   0  0  0  0  0  0  0  0  0  0  0  0
    1.4075   -2.1261    0.8404 S   0  0  0  0  0  0  0  0  0  0  0  0
   -0.2019   -2.1093    0.0015 C   0  0  0  0  0  0  0  0  0  0  0  0
   -1.4698   -1.1283    0.8557 S   0  0  0  0  0  0  0  0  0  0  0  0
   -1.8718    0.3915   -0.5932 P   0  0  0  0  0  0  0  0  0  0  0  0
   -0.7741    0.3037   -2.2123 S   0  0  0  0  0  0  0  0  0  0  0  0
   -1.8636    1.8138    0.0665 O   0  0  0  0  0  0  0  0  0  0  0  0
   -2.8334    2.3193    1.0178 C   0  0  0  0  0  0  0  0  0  0  0  0
   -2.8186    1.5469    2.3189 C   0  0  0  0  0  0  0  0  0  0  0  0
   -3.4319    0.1950   -0.8670 O   0  0  0  0  0  0  0  0  0  0  0  0
   -3.9280   -0.9783   -1.5378 C   0  0  0  0  0  0  0  0  0  0  0  0
   -5.3968   -0.7569   -1.8367 C   0  0  0  0  0  0  0  0  0  0  0  0
    3.0299    2.2121   -1.1545 H   0  0  0  0  0  0  0  0  0  0  0  0
    3.4591    2.2740   -2.8733 H   0  0  0  0  0  0  0  0  0  0  0  0
    1.7910    1.9287   -2.3834 H   0  0  0  0  0  0  0  0  0  0  0  0
    4.1896    0.1175   -1.8094 H   0  0  0  0  0  0  0  0  0  0  0  0
    2.9768   -0.1550   -3.1002 H   0  0  0  0  0  0  0  0  0  0  0  0
    5.0828    0.3239    2.0815 H   0  0  0  0  0  0  0  0  0  0  0  0
    3.5612    1.2482    2.2783 H   0  0  0  0  0  0  0  0  0  0  0  0
    3.8768   -1.7121    2.9802 H   0  0  0  0  0  0  0  0  0  0  0  0
    3.9160   -0.3854    4.1581 H   0  0  0  0  0  0  0  0  0  0  0  0
    2.4404   -0.7132    3.2369 H   0  0  0  0  0  0  0  0  0  0  0  0
   -0.5345   -3.1438   -0.0029 H   0  0  0  0  0  0  0  0  0  0  0  0
   -0.0808   -1.7203   -1.0132 H   0  0  0  0  0  0  0  0  0  0  0  0
   -2.5140    3.3526    1.1624 H   0  0  0  0  0  0  0  0  0  0  0  0
   -3.8183    2.2906    0.5481 H   0  0  0  0  0  0  0  0  0  0  0  0
   -1.8056    1.5035    2.7132 H   0  0  0  0  0  0  0  0  0  0  0  0
   -3.4618    2.0461    3.0367 H   0  0  0  0  0  0  0  0  0  0  0  0
   -3.1788    0.5307    2.1642 H   0  0  0  0  0  0  0  0  0  0  0  0
   -3.3481   -1.1251   -2.4551 H   0  0  0  0  0  0  0  0  0  0  0  0
   -3.7802   -1.8387   -0.8782 H   0  0  0  0  0  0  0  0  0  0  0  0
   -5.5201    0.1135   -2.4751 H   0  0  0  0  0  0  0  0  0  0  0  0
   -5.7916   -1.6314   -2.3430 H   0  0  0  0  0  0  0  0  0  0  0  0
   -5.9446   -0.5975   -0.9127 H   0  0  0  0  0  0  0  0  0  0  0  0
  1  2  1  0  0  0  0
  2  3  1  0  0  0  0
  3  4  2  0  0  0  0
  4  5  2  0  0  0  0
  4  6  2  0  0  0  0
  6  7  1  0  0  0  0
  7  8  1  0  0  0  0
  4  9  1  0  0  0  0
  9 10  1  0  0  0  0
 10 11  1  0  0  0  0
 11 12  1  0  0  0  0
 12 13  2  0  0  0  0
 12 14  2  0  0  0  0
 14 15  1  0  0  0  0
 15 16  1  0  0  0  0
 12 17  2  0  0  0  0
 17 18  1  0  0  0  0
 18 19  1  0  0  0  0
  1 20  1  0  0  0  0
  1 21  1  0  0  0  0
  1 22  1  0  0  0  0
  2 23  1  0  0  0  0
  2 24  1  0  0  0  0
  7 25  1  0  0  0  0
  7 26  1  0  0  0  0
  8 27  1  0  0  0  0
  8 28  1  0  0  0  0
  8 29  1  0  0  0  0
 10 30  1  0  0  0  0
 10 31  1  0  0  0  0
 15 32  1  0  0  0  0
 15 33  1  0  0  0  0
 16 34  1  0  0  0  0
 16 35  1  0  0  0  0
 16 36  1  0  0  0  0
 18 37  1  0  0  0  0
 18 38  1  0  0  0  0
 19 39  1  0  0  0  0
 19 40  1  0  0  0  0
 19 41  1  0  0  0  0
M  END
