22
 xtb: 6.7.1 (edcfbbe)
C            2.61978786132550       -0.00002809231410        0.45697858187273
N            1.36484468018227       -0.00004960757437       -0.29613612430181
C            0.58126248279711        1.19276767143554        0.06854517893407
C           -0.76615837042193        1.19566504008752       -0.64439331189029
N           -1.59371681729707       -0.00002229037796       -0.39196940082267
C           -0.76617627558868       -1.19574315985777       -0.64429488714092
C            0.58122854635139       -1.19280660377824        0.06866877276417
C           -2.12953162941596        0.00003423773939        0.97621468424870
H            3.20924580181484       -0.88728081684366        0.20279869384005
H            2.45490876262485        0.00001484098686        1.55041332923985
H            3.20925487225646        0.88719793822850        0.20272954713695
H            0.43739345601275        1.24708143444503        1.16491819333484
H            1.14050196695057        2.08916287474922       -0.22472719171890
H           -1.33272350904823        2.08426276864966       -0.34461643515591
H           -0.59388605938007        1.26776752734596       -1.72627958418212
H           -1.33276339850204       -2.08431136439990       -0.34446995221398
H           -0.59388177395796       -1.26792164337565       -1.72617347491850
H            0.43733306779763       -1.24698539115682        1.16504509991205
H            1.14045351842486       -2.08924974403557       -0.22448308947953
H           -2.75836250474503       -0.88538572990973        1.11655638552284
H           -2.75832562789930        0.88548865137889        1.11649914885091
H           -1.37073303872856        0.00004413086638        1.77315262727719
