20
CONF1
C -1.2473693343 0.9670664863 -1.2600998390
C -1.0065227268 0.1187220283 0.0000520362
C -1.9419069155 -1.0905256841 0.0000637506
C -1.2470133298 0.9668205275 1.2604133068
C 0.4371669656 -0.3656206020 -0.0005910643
O 0.7922908352 -1.5327490681 -0.0022013587
O 1.3139691101 0.6562440860 0.0010152021
C 2.7168948449 0.2877956853 0.0005023377
H -1.0393375036 0.3896315244 -2.1669821468
H -2.2969973878 1.2766379800 -1.2847358993
H -0.6237004619 1.8645740542 -1.2662412894
H -2.9787986521 -0.7417777959 0.0000708713
H -1.7876738831 -1.7111549460 0.8874615214
H -1.7877002538 -1.7111745626 -0.8873154443
H -1.0376927059 0.3895528929 2.1671006987
H -0.6241339363 1.8648667530 1.2660546028
H -2.2968806996 1.2754850016 1.2859873817
H 2.9555176375 -0.2877248147 -0.8970289713
H 2.9546128663 -0.2941537563 0.8941010158
H 3.2626757285 1.2304936572 0.0041244641
20
CONF2
C -1.2623035824 0.9925134864 -1.2526713490
C -1.0040524701 0.1254235437 -0.0055224537
C -1.9315370665 -1.0906311822 -0.0173808260
C -1.2371708741 0.9522941640 1.2667730927
C 0.4408211525 -0.3482393675 -0.0786773224
O 0.7981106295 -1.4768789245 -0.3733720757
O 1.3153689916 0.6400319020 0.1870512802
C 2.7186404354 0.2902365225 0.0811749905
H -0.6226797766 1.8794389966 -1.2608616632
H -1.0840105230 0.4222021685 -2.1701021555
H -2.3069811223 1.3194439096 -1.2487729931
H -2.9701900188 -0.7505478615 0.0316555018
H -1.7407650502 -1.7400676770 0.8425631864
H -1.8049226057 -1.6789751886 -0.9300600720
H -0.9963589253 0.3704447058 2.1625062512
H -0.6373579336 1.8653445320 1.2728491058
H -2.2929800599 1.2362541891 1.3172329116
H 3.2624322030 1.1997985236 0.3343695796
H 2.9526555612 -0.0232487272 -0.9391130588
H 2.9632167456 -0.5087047469 0.7852657884
20
CONF3
C -1.4311090243 0.6357503835 -1.3760201740
C -1.0033470916 0.1328418932 0.0163775550
C -1.8397106322 -1.0946333309 0.4048975002
C -1.1942795987 1.2439146354 1.0506587746
C 0.4480164951 -0.3065601523 -0.1209083490
O 0.8011743028 -1.3046411731 -0.7307069767
O 1.3221059990 0.5298672609 0.4626758243
C 2.7243145234 0.1871979149 0.3131767841
H -0.8217095637 1.4893383781 -1.6909917582
H -1.3400348016 -0.1564744986 -2.1249125870
H -2.4769578883 0.9564790208 -1.3342474556
H -1.5268807569 -1.4905304849 1.3768040309
H -1.7502224294 -1.8891776677 -0.3405380033
H -2.8924306592 -0.8036960440 0.4750440280
H -0.8550481531 0.9300792050 2.0425498834
H -0.6583078539 2.1551396126 0.7720272251
H -2.2601483045 1.4850457524 1.1162013130
H 3.0017883120 0.1914299098 -0.7437035721
H 2.9218980685 -0.7944809804 0.7502768813
H 3.2686065878 0.9612679578 0.8531693858
20
CONF4
C -1.1843504068 1.2921492605 -1.0032927171
C -0.9972652354 0.1674132705 0.0159240811
C -1.7356179030 -1.0966262199 -0.4590081738
C -1.5451616602 0.6047149361 1.3843844309
C 0.4623447532 -0.2215238162 0.2140526035
O 0.8343313048 -1.0620937970 1.0189883040
O 1.3141056129 0.4387746873 -0.5865583512
C 2.7166386885 0.0901093596 -0.4452901830
H -0.8195806576 1.0049467685 -1.9933313519
H -2.2523335830 1.5172425953 -1.0873806861
H -0.6688135804 2.2058000651 -0.6935947116
H -1.6370855846 -1.9072853984 0.2681933361
H -1.3467307598 -1.4405856423 -1.4231292842
H -2.7986122081 -0.8654293107 -0.5796018277
H -1.4576676073 -0.1985395204 2.1208607119
H -1.0093205157 1.4831893466 1.7585453158
H -2.6029401644 0.8653299946 1.2802135486
H 2.8652648348 -0.9686707821 -0.6700978480
H 3.0591410478 0.3115660181 0.5683200183
H 3.2412699029 0.7119751904 -1.1698138384
