 xtb: 6.7.1 (edcfbbe)
          04092514003D

 41 40  0     0  0            999 V2000
    5.2263   -1.3329   -1.5648 C   0  0  0  0  0  0  0  0  0  0  0  0
    3.7806   -1.7098   -1.8295 C   0  0  0  0  0  0  0  0  0  0  0  0
    2.9928   -1.6618   -0.6210 O   0  0  0  0  0  0  0  0  0  0  0  0
    2.1641   -0.3904   -0.1573 P   0  0  0  0  0  0  0  0  0  0  0  0
    3.1551    1.2681    0.1883 S   0  0  0  0  0  0  0  0  0  0  0  0
    1.4061   -1.0237    1.0769 O   0  0  0  0  0  0  0  0  0  0  0  0
    1.5309   -0.5476    2.4288 C   0  0  0  0  0  0  0  0  0  0  0  0
    2.6632   -1.2552    3.1447 C   0  0  0  0  0  0  0  0  0  0  0  0
    0.6498   -0.2667   -1.6410 S   0  0  0  0  0  0  0  0  0  0  0  0
    0.1070    1.4290   -1.3055 C   0  0  0  0  0  0  0  0  0  0  0  0
   -0.6105    1.6650    0.3487 S   0  0  0  0  0  0  0  0  0  0  0  0
   -2.3016    0.4314    0.1098 P   0  0  0  0  0  0  0  0  0  0  0  0
   -3.1382    0.3287   -1.6627 S   0  0  0  0  0  0  0  0  0  0  0  0
   -3.2948    0.8693    1.2753 O   0  0  0  0  0  0  0  0  0  0  0  0
   -4.3820    1.7941    1.0919 C   0  0  0  0  0  0  0  0  0  0  0  0
   -3.9047    3.2260    0.9609 C   0  0  0  0  0  0  0  0  0  0  0  0
   -1.7160   -0.9151    0.7073 O   0  0  0  0  0  0  0  0  0  0  0  0
   -2.3696   -2.1918    0.5215 C   0  0  0  0  0  0  0  0  0  0  0  0
   -1.5423   -3.0594   -0.4060 C   0  0  0  0  0  0  0  0  0  0  0  0
    5.6401   -1.9620   -0.7815 H   0  0  0  0  0  0  0  0  0  0  0  0
    5.8010   -1.4733   -2.4751 H   0  0  0  0  0  0  0  0  0  0  0  0
    5.3007   -0.2928   -1.2552 H   0  0  0  0  0  0  0  0  0  0  0  0
    3.7001   -2.7464   -2.1628 H   0  0  0  0  0  0  0  0  0  0  0  0
    3.3338   -1.0520   -2.5805 H   0  0  0  0  0  0  0  0  0  0  0  0
    1.6957    0.5353    2.4137 H   0  0  0  0  0  0  0  0  0  0  0  0
    0.5627   -0.7622    2.8847 H   0  0  0  0  0  0  0  0  0  0  0  0
    3.6118   -1.0050    2.6726 H   0  0  0  0  0  0  0  0  0  0  0  0
    2.6868   -0.9347    4.1816 H   0  0  0  0  0  0  0  0  0  0  0  0
    2.5215   -2.3315    3.1014 H   0  0  0  0  0  0  0  0  0  0  0  0
   -0.6374    1.6625   -2.0657 H   0  0  0  0  0  0  0  0  0  0  0  0
    0.9593    2.1058   -1.3591 H   0  0  0  0  0  0  0  0  0  0  0  0
   -4.9463    1.4935    0.2031 H   0  0  0  0  0  0  0  0  0  0  0  0
   -4.9944    1.6564    1.9844 H   0  0  0  0  0  0  0  0  0  0  0  0
   -3.3390    3.3504    0.0388 H   0  0  0  0  0  0  0  0  0  0  0  0
   -4.7664    3.8863    0.9373 H   0  0  0  0  0  0  0  0  0  0  0  0
   -3.2695    3.4934    1.8013 H   0  0  0  0  0  0  0  0  0  0  0  0
   -2.4455   -2.6280    1.5190 H   0  0  0  0  0  0  0  0  0  0  0  0
   -3.3728   -2.0301    0.1156 H   0  0  0  0  0  0  0  0  0  0  0  0
   -1.5073   -2.6180   -1.4001 H   0  0  0  0  0  0  0  0  0  0  0  0
   -0.5263   -3.1427   -0.0276 H   0  0  0  0  0  0  0  0  0  0  0  0
   -1.9886   -4.0467   -0.4689 H   0  0  0  0  0  0  0  0  0  0  0  0
  1  2  1  0  0  0  0
  2  3  1  0  0  0  0
  3  4  2  0  0  0  0
  4  5  2  0  0  0  0
  4  6  2  0  0  0  0
  6  7  1  0  0  0  0
  7  8  1  0  0  0  0
  4  9  1  0  0  0  0
  9 10  1  0  0  0  0
 10 11  1  0  0  0  0
 11 12  1  0  0  0  0
 12 13  2  0  0  0  0
 12 14  2  0  0  0  0
 14 15  1  0  0  0  0
 15 16  1  0  0  0  0
 12 17  2  0  0  0  0
 17 18  1  0  0  0  0
 18 19  1  0  0  0  0
  1 20  1  0  0  0  0
  1 21  1  0  0  0  0
  1 22  1  0  0  0  0
  2 23  1  0  0  0  0
  2 24  1  0  0  0  0
  7 25  1  0  0  0  0
  7 26  1  0  0  0  0
  8 27  1  0  0  0  0
  8 28  1  0  0  0  0
  8 29  1  0  0  0  0
 10 30  1  0  0  0  0
 10 31  1  0  0  0  0
 15 32  1  0  0  0  0
 15 33  1  0  0  0  0
 16 34  1  0  0  0  0
 16 35  1  0  0  0  0
 16 36  1  0  0  0  0
 18 37  1  0  0  0  0
 18 38  1  0  0  0  0
 19 39  1  0  0  0  0
 19 40  1  0  0  0  0
 19 41  1  0  0  0  0
M  END
