16
 xtb: 6.7.1 (edcfbbe)
C           -1.48012587064999       -0.00175400409112       -0.23042646917417
C           -0.72792077775366       -1.25149483923032        0.23006025147593
C            0.72258777472474       -1.18632563567673       -0.22241549155201
O            1.37605013411474        0.00168977308841        0.26287588541694
C            0.71973124201494        1.18814281966077       -0.22237197646412
C           -0.73094523608029        1.24979449036031        0.23008560600363
H           -2.50561757316238       -0.00299632274460        0.15402493742915
H           -1.54294424121055       -0.00181978454042       -1.32724788778681
H           -0.75937675221412       -1.32548010436409        1.32469227346351
H           -1.18698876247013       -2.16055806326333       -0.17582110332027
H            1.30339390516831       -2.02851242109563        0.16542672028092
H            0.77788703976677       -1.20221902976103       -1.32357882412762
H            1.29849131301573        2.03171760189903        0.16551749289300
H            0.77501062799429        1.20423034837229       -1.32353230110000
H           -0.76259341465263        1.32368218633420        1.32471837423155
H           -1.19220742469151        2.15774875921537       -0.17578785933358
