 xtb: 6.7.1 (edcfbbe)
          04092514003D

 41 40  0     0  0            999 V2000
    4.1902   -1.5189   -2.4191 C   0  0  0  0  0  0  0  0  0  0  0  0
    4.4901   -1.5549   -0.9341 C   0  0  0  0  0  0  0  0  0  0  0  0
    3.2951   -1.5787   -0.1339 O   0  0  0  0  0  0  0  0  0  0  0  0
    2.3413   -0.3218    0.0490 P   0  0  0  0  0  0  0  0  0  0  0  0
    3.2427    1.4213    0.1335 S   0  0  0  0  0  0  0  0  0  0  0  0
    1.5048   -0.7348    1.3316 O   0  0  0  0  0  0  0  0  0  0  0  0
    1.8628   -0.3054    2.6620 C   0  0  0  0  0  0  0  0  0  0  0  0
    3.1043   -1.0085    3.1695 C   0  0  0  0  0  0  0  0  0  0  0  0
    0.8571   -0.5714   -1.4355 S   0  0  0  0  0  0  0  0  0  0  0  0
    0.1233    1.0834   -1.2943 C   0  0  0  0  0  0  0  0  0  0  0  0
   -0.7959    1.3457    0.2412 S   0  0  0  0  0  0  0  0  0  0  0  0
   -2.6581    0.4354   -0.3195 P   0  0  0  0  0  0  0  0  0  0  0  0
   -2.9256    0.1534   -2.2343 S   0  0  0  0  0  0  0  0  0  0  0  0
   -3.7684    1.3804    0.2687 O   0  0  0  0  0  0  0  0  0  0  0  0
   -3.8456    1.7083    1.6827 C   0  0  0  0  0  0  0  0  0  0  0  0
   -4.5621    3.0348    1.8226 C   0  0  0  0  0  0  0  0  0  0  0  0
   -2.7917   -0.8163    0.6609 O   0  0  0  0  0  0  0  0  0  0  0  0
   -1.8483   -1.8939    0.7722 C   0  0  0  0  0  0  0  0  0  0  0  0
   -1.9520   -2.8731   -0.3795 C   0  0  0  0  0  0  0  0  0  0  0  0
    3.5199   -2.3301   -2.6914 H   0  0  0  0  0  0  0  0  0  0  0  0
    3.7215   -0.5727   -2.6860 H   0  0  0  0  0  0  0  0  0  0  0  0
    5.1190   -1.6190   -2.9725 H   0  0  0  0  0  0  0  0  0  0  0  0
    5.0864   -0.6844   -0.6420 H   0  0  0  0  0  0  0  0  0  0  0  0
    5.0102   -2.4722   -0.6541 H   0  0  0  0  0  0  0  0  0  0  0  0
    2.0087    0.7795    2.6471 H   0  0  0  0  0  0  0  0  0  0  0  0
    0.9857   -0.5510    3.2620 H   0  0  0  0  0  0  0  0  0  0  0  0
    2.9813   -2.0862    3.1048 H   0  0  0  0  0  0  0  0  0  0  0  0
    3.9682   -0.7155    2.5744 H   0  0  0  0  0  0  0  0  0  0  0  0
    3.2774   -0.7255    4.2034 H   0  0  0  0  0  0  0  0  0  0  0  0
   -0.5535    1.1921   -2.1429 H   0  0  0  0  0  0  0  0  0  0  0  0
    0.9155    1.8313   -1.3120 H   0  0  0  0  0  0  0  0  0  0  0  0
   -4.3922    0.9022    2.1756 H   0  0  0  0  0  0  0  0  0  0  0  0
   -2.8299    1.7601    2.0848 H   0  0  0  0  0  0  0  0  0  0  0  0
   -4.6416    3.2843    2.8760 H   0  0  0  0  0  0  0  0  0  0  0  0
   -4.0091    3.8166    1.3095 H   0  0  0  0  0  0  0  0  0  0  0  0
   -5.5571    2.9698    1.3920 H   0  0  0  0  0  0  0  0  0  0  0  0
   -0.8378   -1.4785    0.8399 H   0  0  0  0  0  0  0  0  0  0  0  0
   -2.1087   -2.3687    1.7201 H   0  0  0  0  0  0  0  0  0  0  0  0
   -1.2726   -3.7009   -0.2031 H   0  0  0  0  0  0  0  0  0  0  0  0
   -2.9681   -3.2498   -0.4618 H   0  0  0  0  0  0  0  0  0  0  0  0
   -1.6820   -2.3906   -1.3171 H   0  0  0  0  0  0  0  0  0  0  0  0
  1  2  1  0  0  0  0
  2  3  1  0  0  0  0
  3  4  2  0  0  0  0
  4  5  2  0  0  0  0
  4  6  2  0  0  0  0
  6  7  1  0  0  0  0
  7  8  1  0  0  0  0
  4  9  1  0  0  0  0
  9 10  1  0  0  0  0
 10 11  1  0  0  0  0
 11 12  1  0  0  0  0
 12 13  2  0  0  0  0
 12 14  2  0  0  0  0
 14 15  1  0  0  0  0
 15 16  1  0  0  0  0
 12 17  2  0  0  0  0
 17 18  1  0  0  0  0
 18 19  1  0  0  0  0
  1 20  1  0  0  0  0
  1 21  1  0  0  0  0
  1 22  1  0  0  0  0
  2 23  1  0  0  0  0
  2 24  1  0  0  0  0
  7 25  1  0  0  0  0
  7 26  1  0  0  0  0
  8 27  1  0  0  0  0
  8 28  1  0  0  0  0
  8 29  1  0  0  0  0
 10 30  1  0  0  0  0
 10 31  1  0  0  0  0
 15 32  1  0  0  0  0
 15 33  1  0  0  0  0
 16 34  1  0  0  0  0
 16 35  1  0  0  0  0
 16 36  1  0  0  0  0
 18 37  1  0  0  0  0
 18 38  1  0  0  0  0
 19 39  1  0  0  0  0
 19 40  1  0  0  0  0
 19 41  1  0  0  0  0
M  END
