41
 xtb: 6.7.1 (edcfbbe)
C            4.72293229485888        0.93015055306118       -1.86254263994036
C            5.06725825984246        0.17905825542387       -0.59997647533963
O            4.04339343986977       -0.80998728968167       -0.23582224651279
P            2.62522026791985       -0.37244962572763        0.38000730063595
S            2.58542903233875        1.20588904458457        1.51889490717112
O            2.30217866131885       -1.79455242603365        1.06139709193555
C            0.99218961410390       -1.99427678052520        1.70065447507986
C            0.48007944007467       -3.35220383018174        1.29712094215499
S            1.28076891933032       -0.33609911562762       -1.27860462544389
C            0.44605257203417        1.28287252603094       -1.09077547697323
S           -0.87822228775738        1.35733700592821        0.18046203597272
P           -2.57483357115281        0.60920674067076       -0.87485398863488
S           -2.19993276013976       -0.34020379818006       -2.52820399103924
O           -3.57936251893350        1.83436329161761       -1.11211518424511
C           -4.03382730411201        2.68807204165034        0.00535773481208
C           -5.53596606107863        2.60933313789022        0.08798319410976
O           -3.34637694613837       -0.18172014776686        0.29756071407830
C           -2.75795995723177       -1.39760835920566        0.88455896870665
C           -2.61722137040470       -1.19981671549504        2.37150015658711
H            4.53090513331054        0.24287934255289       -2.69119393149259
H            3.85118990927192        1.57725491066444       -1.72650271738077
H            5.57622386964253        1.56266901800744       -2.12867327911340
H            5.20995789956104        0.85257380309725        0.25050416279643
H            5.96639789306884       -0.42672788806439       -0.72748522378826
H            1.15544077145784       -1.91302921365668        2.77879343112581
H            0.30649705673154       -1.19818807641078        1.38858761980968
H            1.18872359294097       -4.13607207152215        1.57974458016151
H           -0.46840248638310       -3.54521388837403        1.80792646478162
H            0.30884866581747       -3.39899843255109        0.21749928673095
H            0.03542117225534        1.52544980172593       -2.07359594645800
H            1.17772728227314        2.04238164344857       -0.80443785610057
H           -3.56501997233351        2.36231657420453        0.93870337687675
H           -3.68418754099092        3.69515814360885       -0.23392831213933
H           -5.88360027875120        3.28394538345544        0.87700710124466
H           -5.99530000784249        2.91729027160603       -0.85550650760027
H           -5.86163852379780        1.59389846023925        0.33077733387957
H           -3.44936215169786       -2.20827197726066        0.64065247039817
H           -1.79535701454156       -1.60588201495278        0.40578799517506
H           -1.90817822295516       -0.39757833196340        2.59736954888653
H           -3.58371631585024       -0.95840548877312        2.82340014073859
H           -2.24838085872649       -2.12577472540689        2.82409561269975
