41
 xtb: 6.7.1 (edcfbbe)
C            1.27528496137986        0.72894122864344        2.96977063786246
C            2.73037302584835        0.44333535471112        2.69272396513792
O            3.11132547482248        0.76577802064814        1.31039426712275
P            2.64187648732564       -0.12841833079870        0.05532258243647
S            2.30964830823268       -2.01834755117824        0.38998308940731
O            3.77951828029049        0.22986326416509       -1.02391577195638
C            5.06218035063608       -0.49677406827470       -1.05057258265305
C            5.94387556860085       -0.16149583536479        0.12752420541018
S            1.01664388145828        1.00448023496277       -0.70937133937430
C           -0.02696619021798       -0.31260446550201       -1.45413592501174
S           -1.27004838898294       -1.05781212940521       -0.32384659148603
P           -2.87462912877674        0.30335693561031       -0.63160460157430
S           -3.44159662239871        0.56436316129610       -2.47391284545931
O           -2.43686052995926        1.70081536840570        0.02914008303079
C           -2.12300098315787        1.80926613647207        1.46560000771151
C           -1.49195028536779        3.15908850090364        1.68345377799938
O           -3.93681758518276       -0.27652268642519        0.42474658548163
C           -5.06401398664691       -1.14320767628260        0.04712111282845
C           -4.62756196060559       -2.57125195104321       -0.16058971971932
H            0.62112743042669        0.06106137754390        2.40179041331357
H            1.08661667118484        0.56528784996585        4.03594107604593
H            1.02400755055347        1.76578540369996        2.72913179054139
H            2.98311542603115       -0.60506869877942        2.87743424247333
H            3.38671330932593        1.07900055153713        3.29027994900021
H            4.84418815345538       -1.56765899693452       -1.10854101147497
H            5.51117742908221       -0.17398372894656       -1.99165876921846
H            5.53185395655961       -0.54024749859708        1.06721141174449
H            6.91988489527653       -0.63251493060818       -0.02957398738154
H            6.09294185461356        0.91873197703351        0.21199283971742
H            0.60419097292735       -1.12855332619189       -1.81202295637511
H           -0.54039304301539        0.13497064074972       -2.31101169876315
H           -3.05966622691574        1.70304135498330        2.01971681080106
H           -1.44438699072926        0.99403478087408        1.73709580557056
H           -2.17253542057245        3.96082197912173        1.38280968881190
H           -1.26993445596105        3.27787581260014        2.74846805723134
H           -0.55847918772669        3.25209836408673        1.12157042935274
H           -5.74986064405411       -1.04961093609891        0.89124300392994
H           -5.53507669639065       -0.72239700613253       -0.84583290240579
H           -5.51796542995884       -3.18572873826963       -0.32948867222690
H           -3.97646186592615       -2.67127343707366       -1.03392204172163
H           -4.10709666173802       -2.95502300568166        0.72172300468228
