  19
 
 C          1.3927282373       -2.3620238528       -0.9711062043
 O          1.5425929747       -1.4660245396        0.1261579537
 C          0.8856302090       -0.2764261664        0.0580694127
 C          1.6329801553        0.9039009683        0.1100491216
 C          1.0245349333        2.1467195474        0.0638063221
 C         -0.3500564628        2.2368036012       -0.0524961100
 C         -1.1080263833        1.0779603139       -0.0930982636
 C         -0.5114450493       -0.1792941733       -0.0212162923
 C         -1.3615444723       -1.4096768168        0.0278060184
 O         -2.2192700863       -1.6830798436       -0.7831570881
 O         -1.0861341000       -2.1550974207        1.0780906835
 Cl        -2.8309015264        1.1978031960       -0.1904499815
 Cl         3.3501360714        0.7814157097        0.2414767312
 H          1.7871824498       -3.3137556965       -0.6253461622
 H          1.9745462307       -2.0041355443       -1.8252063736
 H          0.3502225621       -2.4757724468       -1.2725984009
 H          1.6296656067        3.0369986562        0.1057386652
 H         -0.8369153740        3.1956826670       -0.1025265380
 H         -1.6521746698       -2.9505988924        1.1458673075
          19
        -41.51032613
 C          0.7138268299       -2.8252070286       -0.0513248195
 O          1.4532192341       -1.6203221602        0.0362226220
 C          0.8473540062       -0.4198053680        0.0174508577
 C          1.7208915423        0.6841108643       -0.0010987302
 C          1.2666377755        1.9845432792       -0.0243201729
 C         -0.0961235316        2.2370627756       -0.0300775255
 C         -0.9660930762        1.1668197114       -0.0064118912
 C         -0.5258925039       -0.1583017557        0.0167674357
 C         -1.6170210714       -1.1912879649        0.0858346576
 O         -2.0918695864       -1.5931742763        1.1237038850
 O         -2.0374262432       -1.5622240694       -1.1050934214
 Cl        -2.6756772989        1.4548853700        0.0056713401
 Cl         3.4178273825        0.3576960814        0.0065889638
 H          0.1572237390       -2.8706263734       -0.9892948061
 H          0.0417879670       -2.9438266365        0.8007776118
 H          1.4644471348       -3.6126430617       -0.0325891626
 H          1.9744607629        2.7959483481       -0.0390994958
 H         -0.4730557967        3.2449068553       -0.0507779799
 H         -2.8013020074       -2.1740914794       -1.0719646550
