 xtb: 6.7.1 (edcfbbe)
          04092505203D

 41 40  0     0  0            999 V2000
    3.3557    2.0809   -1.6551 C   0  0  0  0  0  0  0  0  0  0  0  0
    4.0279    1.6572   -0.3648 C   0  0  0  0  0  0  0  0  0  0  0  0
    3.6977    0.3035   -0.0156 O   0  0  0  0  0  0  0  0  0  0  0  0
    2.2672   -0.0999    0.5487 P   0  0  0  0  0  0  0  0  0  0  0  0
    1.5266    1.2029    1.8185 S   0  0  0  0  0  0  0  0  0  0  0  0
    2.5149   -1.5565    1.1169 O   0  0  0  0  0  0  0  0  0  0  0  0
    2.8515   -1.7834    2.5030 C   0  0  0  0  0  0  0  0  0  0  0  0
    4.2433   -1.2860    2.8297 C   0  0  0  0  0  0  0  0  0  0  0  0
    1.1813   -0.6095   -1.2049 S   0  0  0  0  0  0  0  0  0  0  0  0
   -0.0612   -1.7045   -0.4604 C   0  0  0  0  0  0  0  0  0  0  0  0
   -1.2147   -0.8516    0.6345 S   0  0  0  0  0  0  0  0  0  0  0  0
   -2.3862    0.0472   -0.9104 P   0  0  0  0  0  0  0  0  0  0  0  0
   -2.5729   -1.0194   -2.5411 S   0  0  0  0  0  0  0  0  0  0  0  0
   -1.7426    1.4299   -1.2988 O   0  0  0  0  0  0  0  0  0  0  0  0
   -1.1688    2.4414   -0.4388 C   0  0  0  0  0  0  0  0  0  0  0  0
   -2.0273    2.7960    0.7546 C   0  0  0  0  0  0  0  0  0  0  0  0
   -3.7204    0.4767   -0.1683 O   0  0  0  0  0  0  0  0  0  0  0  0
   -4.5054   -0.3649    0.6962 C   0  0  0  0  0  0  0  0  0  0  0  0
   -4.9110   -1.6685    0.0410 C   0  0  0  0  0  0  0  0  0  0  0  0
    3.6103    1.3934   -2.4577 H   0  0  0  0  0  0  0  0  0  0  0  0
    2.2728    2.0784   -1.5298 H   0  0  0  0  0  0  0  0  0  0  0  0
    3.6782    3.0825   -1.9205 H   0  0  0  0  0  0  0  0  0  0  0  0
    3.7284    2.3123    0.4606 H   0  0  0  0  0  0  0  0  0  0  0  0
    5.1144    1.6512   -0.4601 H   0  0  0  0  0  0  0  0  0  0  0  0
    2.1040   -1.2835    3.1276 H   0  0  0  0  0  0  0  0  0  0  0  0
    2.7702   -2.8650    2.6186 H   0  0  0  0  0  0  0  0  0  0  0  0
    4.4963   -1.5678    3.8470 H   0  0  0  0  0  0  0  0  0  0  0  0
    4.9672   -1.7162    2.1427 H   0  0  0  0  0  0  0  0  0  0  0  0
    4.2783   -0.2007    2.7440 H   0  0  0  0  0  0  0  0  0  0  0  0
    0.4337   -2.4766    0.1220 H   0  0  0  0  0  0  0  0  0  0  0  0
   -0.6184   -2.1292   -1.2988 H   0  0  0  0  0  0  0  0  0  0  0  0
   -0.1881    2.0873   -0.1069 H   0  0  0  0  0  0  0  0  0  0  0  0
   -1.0401    3.2923   -1.1095 H   0  0  0  0  0  0  0  0  0  0  0  0
   -3.0292    3.0696    0.4350 H   0  0  0  0  0  0  0  0  0  0  0  0
   -2.0849    1.9556    1.4439 H   0  0  0  0  0  0  0  0  0  0  0  0
   -1.5684    3.6329    1.2727 H   0  0  0  0  0  0  0  0  0  0  0  0
   -3.9276   -0.5527    1.6057 H   0  0  0  0  0  0  0  0  0  0  0  0
   -5.3755    0.2507    0.9311 H   0  0  0  0  0  0  0  0  0  0  0  0
   -5.4231   -1.4769   -0.8989 H   0  0  0  0  0  0  0  0  0  0  0  0
   -4.0314   -2.2761   -0.1665 H   0  0  0  0  0  0  0  0  0  0  0  0
   -5.5712   -2.2157    0.7063 H   0  0  0  0  0  0  0  0  0  0  0  0
  1  2  1  0  0  0  0
  2  3  1  0  0  0  0
  3  4  2  0  0  0  0
  4  5  2  0  0  0  0
  4  6  2  0  0  0  0
  6  7  1  0  0  0  0
  7  8  1  0  0  0  0
  4  9  1  0  0  0  0
  9 10  1  0  0  0  0
 10 11  1  0  0  0  0
 11 12  1  0  0  0  0
 12 13  2  0  0  0  0
 12 14  2  0  0  0  0
 14 15  1  0  0  0  0
 15 16  1  0  0  0  0
 12 17  2  0  0  0  0
 17 18  1  0  0  0  0
 18 19  1  0  0  0  0
  1 20  1  0  0  0  0
  1 21  1  0  0  0  0
  1 22  1  0  0  0  0
  2 23  1  0  0  0  0
  2 24  1  0  0  0  0
  7 25  1  0  0  0  0
  7 26  1  0  0  0  0
  8 27  1  0  0  0  0
  8 28  1  0  0  0  0
  8 29  1  0  0  0  0
 10 30  1  0  0  0  0
 10 31  1  0  0  0  0
 15 32  1  0  0  0  0
 15 33  1  0  0  0  0
 16 34  1  0  0  0  0
 16 35  1  0  0  0  0
 16 36  1  0  0  0  0
 18 37  1  0  0  0  0
 18 38  1  0  0  0  0
 19 39  1  0  0  0  0
 19 40  1  0  0  0  0
 19 41  1  0  0  0  0
M  END
