20
 xtb: 6.7.1 (edcfbbe)
C           -1.24736933483277        0.96706648674665       -1.26009983953005
C           -1.00652272724762        0.11872202831153        0.00005203619756
C           -1.94190691634450       -1.09052568461864        0.00006375060773
C           -1.24701333030901        0.96682052788019        1.26041330736641
C            0.43716696578967       -0.36562060214785       -0.00059106432811
O            0.79229083558861       -1.53274906875767       -0.00220135869911
O            1.31396911064480        0.65624408625939        0.00101520214372
C            2.71689484611554        0.28779568541292        0.00050233767493
H           -1.03933750402362        0.38963152461189       -2.16698214773541
H           -2.29699738882102        1.27663798052121       -1.28473589985361
H           -0.62370046220840        1.86457405505876       -1.26624128996261
H           -2.97879865339289       -0.74177779624533        0.00007087133011
H           -1.78767388390438       -1.71115494670868        0.88746152182521
H           -1.78770025460923       -1.71117456336812       -0.88731544472002
H           -1.03769270633881        0.38955289307800        2.16710069966383
H           -0.62413393662314        1.86486675382502        1.26605460336973
H           -2.29688070057711        1.27548500215086        1.28598738225982
H            2.95551763876095       -0.28772481478088       -0.89702897172472
H            2.95461286759856       -0.29415375638395        0.89410101619508
H            3.26267572997392        1.23049365771716        0.00412446406427
