41
 xtb: 6.7.1 (edcfbbe)
C            4.39045924100076       -1.35494857336914       -2.47286682134268
C            4.58384671499586       -1.49260495633753       -0.98364973263145
O            3.30267464765135       -1.57670563692069       -0.26778764676534
P            2.39638897041961       -0.28873829449756        0.06677846112442
S            3.29995696596749        1.42957554777789        0.22807751798869
O            1.58483465376598       -0.79758426173629        1.35737573642889
C            2.07851229546245       -0.55132027143939        2.72220814771595
C            3.29428727243574       -1.38441376484280        3.04549330424405
S            0.91197216738823       -0.44368828241136       -1.43871363540152
C            0.11439196342846        1.20278591729153       -1.30001845184194
S           -0.95179541057965        1.50365648203171        0.16174326525901
P           -2.75237087675926        0.47117050226918       -0.36762211233614
S           -2.91286780688630        0.01011192657079       -2.24866216701734
O           -3.92356784737047        1.45705746656567        0.10916611813444
C           -4.07705231563877        1.82080418906391        1.53291337407448
C           -4.81344900893398        3.13237706887892        1.58483444320972
O           -2.90220034686004       -0.69897421419249        0.72736235201115
C           -1.87298484346078       -1.72196060904745        0.96040087950257
C           -2.01257329027380       -2.88774196503661        0.01373290616474
H            3.76639535537415       -2.16378214624749       -2.86408670297261
H            3.93711900406172       -0.39443101272203       -2.73405399887056
H            5.37082430014836       -1.41150509542865       -2.95739682936847
H            5.15681473244860       -0.66026663644206       -0.56449225568199
H            5.07939750544354       -2.43114917514853       -0.72731464052579
H            2.27432492934566        0.52038656774465        2.82564885317281
H            1.22636281947321       -0.81994521211613        3.34973027276965
H            4.16028538483778       -1.08672000359702        2.44639696309182
H            3.54551441960180       -1.23748284037763        4.10108644800827
H            3.09571383262102       -2.44756319036881        2.88277588058359
H           -0.47530272380298        1.32412102107753       -2.21235743447937
H            0.88969232258730        1.97438299256516       -1.25991429384162
H           -4.63295789095117        1.01365199114779        2.01648994957116
H           -3.08865311379831        1.90022939994855        1.99840669948115
H           -4.23796525108883        3.92403754385890        1.09699923717395
H           -5.79194983463634        3.05042094890582        1.10328353989987
H           -4.96650307376990        3.40971824052506        2.63245642225732
H           -0.88799680905254       -1.24994490098092        0.88842204833716
H           -2.03942032923643       -2.02422737463753        1.99670335913361
H           -3.01398718747573       -3.32388403579208        0.07314985124140
H           -1.81017136797369       -2.59436834913885       -1.01906560074895
H           -1.28574525716487       -3.65432811344062        0.30262967584953
