 xtb: 6.7.1 (edcfbbe)
          04092505213D

 41 40  0     0  0            999 V2000
    4.3559   -2.3737   -0.3704 C   0  0  0  0  0  0  0  0  0  0  0  0
    4.7742   -0.9458   -0.0871 C   0  0  0  0  0  0  0  0  0  0  0  0
    3.6892   -0.1428    0.4158 O   0  0  0  0  0  0  0  0  0  0  0  0
    2.4054    0.2031   -0.4572 P   0  0  0  0  0  0  0  0  0  0  0  0
    2.7379    0.6022   -2.3407 S   0  0  0  0  0  0  0  0  0  0  0  0
    1.7958    1.4391    0.3160 O   0  0  0  0  0  0  0  0  0  0  0  0
    1.5350    1.4449    1.7391 C   0  0  0  0  0  0  0  0  0  0  0  0
    2.6554    2.1359    2.4877 C   0  0  0  0  0  0  0  0  0  0  0  0
    1.0882   -1.4165   -0.0468 S   0  0  0  0  0  0  0  0  0  0  0  0
   -0.0575   -1.1225   -1.4169 C   0  0  0  0  0  0  0  0  0  0  0  0
   -0.7733    0.5536   -1.4476 S   0  0  0  0  0  0  0  0  0  0  0  0
   -2.2350    0.3393    0.0658 P   0  0  0  0  0  0  0  0  0  0  0  0
   -3.3264    1.9484    0.3063 S   0  0  0  0  0  0  0  0  0  0  0  0
   -1.3245   -0.1485    1.2646 O   0  0  0  0  0  0  0  0  0  0  0  0
   -1.8067   -0.9573    2.3636 C   0  0  0  0  0  0  0  0  0  0  0  0
   -2.7994   -0.2058    3.2246 C   0  0  0  0  0  0  0  0  0  0  0  0
   -3.0437   -0.9869   -0.2940 O   0  0  0  0  0  0  0  0  0  0  0  0
   -4.2943   -0.9795   -1.0072 C   0  0  0  0  0  0  0  0  0  0  0  0
   -5.2514   -1.9264   -0.3093 C   0  0  0  0  0  0  0  0  0  0  0  0
    3.6722   -2.3998   -1.2173 H   0  0  0  0  0  0  0  0  0  0  0  0
    5.2360   -2.9609   -0.6123 H   0  0  0  0  0  0  0  0  0  0  0  0
    3.8605   -2.8039    0.4964 H   0  0  0  0  0  0  0  0  0  0  0  0
    5.1592   -0.4707   -0.9943 H   0  0  0  0  0  0  0  0  0  0  0  0
    5.5221   -0.8947    0.7055 H   0  0  0  0  0  0  0  0  0  0  0  0
    0.5900    1.9842    1.8432 H   0  0  0  0  0  0  0  0  0  0  0  0
    1.4059    0.4136    2.0797 H   0  0  0  0  0  0  0  0  0  0  0  0
    3.5827    1.5817    2.3701 H   0  0  0  0  0  0  0  0  0  0  0  0
    2.7951    3.1415    2.1003 H   0  0  0  0  0  0  0  0  0  0  0  0
    2.3979    2.1898    3.5409 H   0  0  0  0  0  0  0  0  0  0  0  0
   -0.8481   -1.8637   -1.3324 H   0  0  0  0  0  0  0  0  0  0  0  0
    0.4813   -1.2166   -2.3588 H   0  0  0  0  0  0  0  0  0  0  0  0
   -2.2502   -1.8666    1.9541 H   0  0  0  0  0  0  0  0  0  0  0  0
   -0.8982   -1.2058    2.9145 H   0  0  0  0  0  0  0  0  0  0  0  0
   -2.3575    0.7133    3.6015 H   0  0  0  0  0  0  0  0  0  0  0  0
   -3.6803    0.0555    2.6395 H   0  0  0  0  0  0  0  0  0  0  0  0
   -3.0984   -0.8305    4.0604 H   0  0  0  0  0  0  0  0  0  0  0  0
   -4.6874    0.0427   -1.0207 H   0  0  0  0  0  0  0  0  0  0  0  0
   -4.0894   -1.3013   -2.0307 H   0  0  0  0  0  0  0  0  0  0  0  0
   -6.1805   -1.9658   -0.8685 H   0  0  0  0  0  0  0  0  0  0  0  0
   -4.8215   -2.9226   -0.2578 H   0  0  0  0  0  0  0  0  0  0  0  0
   -5.4587   -1.5761    0.6984 H   0  0  0  0  0  0  0  0  0  0  0  0
  1  2  1  0  0  0  0
  2  3  1  0  0  0  0
  3  4  2  0  0  0  0
  4  5  2  0  0  0  0
  4  6  2  0  0  0  0
  6  7  1  0  0  0  0
  7  8  1  0  0  0  0
  4  9  1  0  0  0  0
  9 10  1  0  0  0  0
 10 11  1  0  0  0  0
 11 12  1  0  0  0  0
 12 13  2  0  0  0  0
 12 14  2  0  0  0  0
 14 15  1  0  0  0  0
 15 16  1  0  0  0  0
 12 17  2  0  0  0  0
 17 18  1  0  0  0  0
 18 19  1  0  0  0  0
  1 20  1  0  0  0  0
  1 21  1  0  0  0  0
  1 22  1  0  0  0  0
  2 23  1  0  0  0  0
  2 24  1  0  0  0  0
  7 25  1  0  0  0  0
  7 26  1  0  0  0  0
  8 27  1  0  0  0  0
  8 28  1  0  0  0  0
  8 29  1  0  0  0  0
 10 30  1  0  0  0  0
 10 31  1  0  0  0  0
 15 32  1  0  0  0  0
 15 33  1  0  0  0  0
 16 34  1  0  0  0  0
 16 35  1  0  0  0  0
 16 36  1  0  0  0  0
 18 37  1  0  0  0  0
 18 38  1  0  0  0  0
 19 39  1  0  0  0  0
 19 40  1  0  0  0  0
 19 41  1  0  0  0  0
M  END
