 xtb: 6.7.1 (edcfbbe)
          04092505203D

 41 40  0     0  0            999 V2000
    5.4013    0.5238   -0.3533 C   0  0  0  0  0  0  0  0  0  0  0  0
    4.1391    1.1450   -0.9196 C   0  0  0  0  0  0  0  0  0  0  0  0
    3.0978    0.1577   -1.0708 O   0  0  0  0  0  0  0  0  0  0  0  0
    2.0193   -0.1299    0.0579 P   0  0  0  0  0  0  0  0  0  0  0  0
    2.6873   -0.6044    1.8429 S   0  0  0  0  0  0  0  0  0  0  0  0
    1.1117   -1.2106   -0.6507 O   0  0  0  0  0  0  0  0  0  0  0  0
    1.2622   -2.6243   -0.4178 C   0  0  0  0  0  0  0  0  0  0  0  0
    2.5763   -3.1390   -0.9639 C   0  0  0  0  0  0  0  0  0  0  0  0
    0.7911    1.5839   -0.0291 S   0  0  0  0  0  0  0  0  0  0  0  0
   -0.0543    1.3181    1.5528 C   0  0  0  0  0  0  0  0  0  0  0  0
   -1.0573   -0.1951    1.5901 S   0  0  0  0  0  0  0  0  0  0  0  0
   -2.3053    0.1571   -0.0900 P   0  0  0  0  0  0  0  0  0  0  0  0
   -1.7371   -0.3163   -1.9101 S   0  0  0  0  0  0  0  0  0  0  0  0
   -2.6600    1.6746    0.1680 O   0  0  0  0  0  0  0  0  0  0  0  0
   -2.9745    2.6218   -0.8782 C   0  0  0  0  0  0  0  0  0  0  0  0
   -2.1266    3.8640   -0.6918 C   0  0  0  0  0  0  0  0  0  0  0  0
   -3.6647   -0.5602    0.3295 O   0  0  0  0  0  0  0  0  0  0  0  0
   -3.9339   -1.9339    0.0097 C   0  0  0  0  0  0  0  0  0  0  0  0
   -3.0371   -2.8739    0.7899 C   0  0  0  0  0  0  0  0  0  0  0  0
    6.1799    1.2784   -0.3067 H   0  0  0  0  0  0  0  0  0  0  0  0
    5.2180    0.1416    0.6485 H   0  0  0  0  0  0  0  0  0  0  0  0
    5.7315   -0.2947   -0.9869 H   0  0  0  0  0  0  0  0  0  0  0  0
    4.3011    1.5249   -1.9300 H   0  0  0  0  0  0  0  0  0  0  0  0
    3.7780    1.9554   -0.2796 H   0  0  0  0  0  0  0  0  0  0  0  0
    1.1858   -2.8080    0.6594 H   0  0  0  0  0  0  0  0  0  0  0  0
    0.4066   -3.0638   -0.9339 H   0  0  0  0  0  0  0  0  0  0  0  0
    3.4023   -2.6815   -0.4199 H   0  0  0  0  0  0  0  0  0  0  0  0
    2.6224   -4.2163   -0.8400 H   0  0  0  0  0  0  0  0  0  0  0  0
    2.6666   -2.8878   -2.0175 H   0  0  0  0  0  0  0  0  0  0  0  0
   -0.6874    2.1841    1.7263 H   0  0  0  0  0  0  0  0  0  0  0  0
    0.6863    1.1980    2.3446 H   0  0  0  0  0  0  0  0  0  0  0  0
   -2.7837    2.1531   -1.8497 H   0  0  0  0  0  0  0  0  0  0  0  0
   -4.0390    2.8441   -0.7843 H   0  0  0  0  0  0  0  0  0  0  0  0
   -2.3853    4.5866   -1.4588 H   0  0  0  0  0  0  0  0  0  0  0  0
   -2.3095    4.2994    0.2864 H   0  0  0  0  0  0  0  0  0  0  0  0
   -1.0705    3.6148   -0.7783 H   0  0  0  0  0  0  0  0  0  0  0  0
   -4.9849   -2.0669    0.2690 H   0  0  0  0  0  0  0  0  0  0  0  0
   -3.7941   -2.0714   -1.0679 H   0  0  0  0  0  0  0  0  0  0  0  0
   -3.1335   -2.6913    1.8571 H   0  0  0  0  0  0  0  0  0  0  0  0
   -3.3070   -3.9019    0.5709 H   0  0  0  0  0  0  0  0  0  0  0  0
   -1.9973   -2.7103    0.5035 H   0  0  0  0  0  0  0  0  0  0  0  0
  1  2  1  0  0  0  0
  2  3  1  0  0  0  0
  3  4  2  0  0  0  0
  4  5  2  0  0  0  0
  4  6  2  0  0  0  0
  6  7  1  0  0  0  0
  7  8  1  0  0  0  0
  4  9  1  0  0  0  0
  9 10  1  0  0  0  0
 10 11  1  0  0  0  0
 11 12  1  0  0  0  0
 12 13  2  0  0  0  0
 12 14  2  0  0  0  0
 14 15  1  0  0  0  0
 15 16  1  0  0  0  0
 12 17  2  0  0  0  0
 17 18  1  0  0  0  0
 18 19  1  0  0  0  0
  1 20  1  0  0  0  0
  1 21  1  0  0  0  0
  1 22  1  0  0  0  0
  2 23  1  0  0  0  0
  2 24  1  0  0  0  0
  7 25  1  0  0  0  0
  7 26  1  0  0  0  0
  8 27  1  0  0  0  0
  8 28  1  0  0  0  0
  8 29  1  0  0  0  0
 10 30  1  0  0  0  0
 10 31  1  0  0  0  0
 15 32  1  0  0  0  0
 15 33  1  0  0  0  0
 16 34  1  0  0  0  0
 16 35  1  0  0  0  0
 16 36  1  0  0  0  0
 18 37  1  0  0  0  0
 18 38  1  0  0  0  0
 19 39  1  0  0  0  0
 19 40  1  0  0  0  0
 19 41  1  0  0  0  0
M  END
