 xtb: 6.7.1 (edcfbbe)
          04092505203D

 41 40  0     0  0            999 V2000
    4.6108   -1.6934   -0.6445 C   0  0  0  0  0  0  0  0  0  0  0  0
    4.6424   -0.2100   -0.3392 C   0  0  0  0  0  0  0  0  0  0  0  0
    3.5006    0.2073    0.4286 O   0  0  0  0  0  0  0  0  0  0  0  0
    2.0359    0.2805   -0.1897 P   0  0  0  0  0  0  0  0  0  0  0  0
    2.0014    0.8363   -2.0753 S   0  0  0  0  0  0  0  0  0  0  0  0
    1.2922    1.1248    0.9246 O   0  0  0  0  0  0  0  0  0  0  0  0
    1.7369    2.3932    1.4476 C   0  0  0  0  0  0  0  0  0  0  0  0
    1.9188    3.4375    0.3664 C   0  0  0  0  0  0  0  0  0  0  0  0
    1.1962   -1.6108    0.1986 S   0  0  0  0  0  0  0  0  0  0  0  0
   -0.0294   -1.7237   -1.1499 C   0  0  0  0  0  0  0  0  0  0  0  0
   -1.7235   -1.8824   -0.5464 S   0  0  0  0  0  0  0  0  0  0  0  0
   -1.9785    0.0778    0.2389 P   0  0  0  0  0  0  0  0  0  0  0  0
   -1.3159    1.5566   -0.8599 S   0  0  0  0  0  0  0  0  0  0  0  0
   -1.3344    0.0769    1.6779 O   0  0  0  0  0  0  0  0  0  0  0  0
   -1.3600   -1.0040    2.6443 C   0  0  0  0  0  0  0  0  0  0  0  0
   -2.7601   -1.4754    2.9700 C   0  0  0  0  0  0  0  0  0  0  0  0
   -3.5349    0.1576    0.5526 O   0  0  0  0  0  0  0  0  0  0  0  0
   -4.5028    0.5911   -0.4173 C   0  0  0  0  0  0  0  0  0  0  0  0
   -4.6497   -0.3882   -1.5640 C   0  0  0  0  0  0  0  0  0  0  0  0
    5.5491   -1.9837   -1.1059 H   0  0  0  0  0  0  0  0  0  0  0  0
    4.4631   -2.2645    0.2685 H   0  0  0  0  0  0  0  0  0  0  0  0
    3.7964   -1.9129   -1.3332 H   0  0  0  0  0  0  0  0  0  0  0  0
    4.6665    0.3721   -1.2662 H   0  0  0  0  0  0  0  0  0  0  0  0
    5.4923    0.0554    0.2910 H   0  0  0  0  0  0  0  0  0  0  0  0
    0.9386    2.6726    2.1380 H   0  0  0  0  0  0  0  0  0  0  0  0
    2.6675    2.2259    1.9953 H   0  0  0  0  0  0  0  0  0  0  0  0
    1.0074    3.5276   -0.2228 H   0  0  0  0  0  0  0  0  0  0  0  0
    2.1491    4.3956    0.8213 H   0  0  0  0  0  0  0  0  0  0  0  0
    2.7320    3.1533   -0.3008 H   0  0  0  0  0  0  0  0  0  0  0  0
    0.1728   -2.6297   -1.7150 H   0  0  0  0  0  0  0  0  0  0  0  0
    0.0672   -0.8349   -1.7804 H   0  0  0  0  0  0  0  0  0  0  0  0
   -0.7502   -1.8251    2.2558 H   0  0  0  0  0  0  0  0  0  0  0  0
   -0.8681   -0.5653    3.5137 H   0  0  0  0  0  0  0  0  0  0  0  0
   -3.3785   -0.6371    3.2797 H   0  0  0  0  0  0  0  0  0  0  0  0
   -3.2131   -1.9453    2.0997 H   0  0  0  0  0  0  0  0  0  0  0  0
   -2.7062   -2.2010    3.7759 H   0  0  0  0  0  0  0  0  0  0  0  0
   -5.4250    0.6776    0.1590 H   0  0  0  0  0  0  0  0  0  0  0  0
   -4.2028    1.5760   -0.7895 H   0  0  0  0  0  0  0  0  0  0  0  0
   -3.7446   -0.3927   -2.1693 H   0  0  0  0  0  0  0  0  0  0  0  0
   -4.8248   -1.3921   -1.1860 H   0  0  0  0  0  0  0  0  0  0  0  0
   -5.4852   -0.0857   -2.1871 H   0  0  0  0  0  0  0  0  0  0  0  0
  1  2  1  0  0  0  0
  2  3  1  0  0  0  0
  3  4  2  0  0  0  0
  4  5  2  0  0  0  0
  4  6  2  0  0  0  0
  6  7  1  0  0  0  0
  7  8  1  0  0  0  0
  4  9  1  0  0  0  0
  9 10  1  0  0  0  0
 10 11  1  0  0  0  0
 11 12  1  0  0  0  0
 12 13  2  0  0  0  0
 12 14  2  0  0  0  0
 14 15  1  0  0  0  0
 15 16  1  0  0  0  0
 12 17  2  0  0  0  0
 17 18  1  0  0  0  0
 18 19  1  0  0  0  0
  1 20  1  0  0  0  0
  1 21  1  0  0  0  0
  1 22  1  0  0  0  0
  2 23  1  0  0  0  0
  2 24  1  0  0  0  0
  7 25  1  0  0  0  0
  7 26  1  0  0  0  0
  8 27  1  0  0  0  0
  8 28  1  0  0  0  0
  8 29  1  0  0  0  0
 10 30  1  0  0  0  0
 10 31  1  0  0  0  0
 15 32  1  0  0  0  0
 15 33  1  0  0  0  0
 16 34  1  0  0  0  0
 16 35  1  0  0  0  0
 16 36  1  0  0  0  0
 18 37  1  0  0  0  0
 18 38  1  0  0  0  0
 19 39  1  0  0  0  0
 19 40  1  0  0  0  0
 19 41  1  0  0  0  0
M  END
