 xtb: 6.7.1 (edcfbbe)
          04092514023D

 41 40  0     0  0            999 V2000
    5.7760    0.5137    0.3471 C   0  0  0  0  0  0  0  0  0  0  0  0
    4.9171    0.0003   -0.7907 C   0  0  0  0  0  0  0  0  0  0  0  0
    3.7520    0.8501   -0.9888 O   0  0  0  0  0  0  0  0  0  0  0  0
    2.3357    0.5272   -0.3934 P   0  0  0  0  0  0  0  0  0  0  0  0
    0.9827    1.8681   -0.8465 S   0  0  0  0  0  0  0  0  0  0  0  0
    2.6550    0.3956    1.1606 O   0  0  0  0  0  0  0  0  0  0  0  0
    1.6402    0.1395    2.1496 C   0  0  0  0  0  0  0  0  0  0  0  0
    1.7906   -1.2652    2.6998 C   0  0  0  0  0  0  0  0  0  0  0  0
    1.9138   -1.4529   -1.1002 S   0  0  0  0  0  0  0  0  0  0  0  0
    0.1602   -1.3037   -1.4751 C   0  0  0  0  0  0  0  0  0  0  0  0
   -0.8930   -1.7146   -0.0284 S   0  0  0  0  0  0  0  0  0  0  0  0
   -2.3080   -0.1696   -0.1384 P   0  0  0  0  0  0  0  0  0  0  0  0
   -2.6509    0.6125   -1.9088 S   0  0  0  0  0  0  0  0  0  0  0  0
   -1.7889    0.8091    0.9898 O   0  0  0  0  0  0  0  0  0  0  0  0
   -2.3429    2.1338    1.1629 C   0  0  0  0  0  0  0  0  0  0  0  0
   -1.4816    2.8568    2.1764 C   0  0  0  0  0  0  0  0  0  0  0  0
   -3.5962   -0.7846    0.5675 O   0  0  0  0  0  0  0  0  0  0  0  0
   -4.5039   -1.6766   -0.1131 C   0  0  0  0  0  0  0  0  0  0  0  0
   -5.8728   -1.5493    0.5268 C   0  0  0  0  0  0  0  0  0  0  0  0
    6.6817   -0.0829    0.4016 H   0  0  0  0  0  0  0  0  0  0  0  0
    6.0433    1.5523    0.1726 H   0  0  0  0  0  0  0  0  0  0  0  0
    5.2424    0.4434    1.2907 H   0  0  0  0  0  0  0  0  0  0  0  0
    4.5826   -1.0238   -0.6086 H   0  0  0  0  0  0  0  0  0  0  0  0
    5.4505    0.0489   -1.7414 H   0  0  0  0  0  0  0  0  0  0  0  0
    1.7993    0.8900    2.9267 H   0  0  0  0  0  0  0  0  0  0  0  0
    0.6504    0.2939    1.7083 H   0  0  0  0  0  0  0  0  0  0  0  0
    2.7845   -1.3939    3.1191 H   0  0  0  0  0  0  0  0  0  0  0  0
    1.0498   -1.4207    3.4771 H   0  0  0  0  0  0  0  0  0  0  0  0
    1.6373   -2.0030    1.9154 H   0  0  0  0  0  0  0  0  0  0  0  0
   -0.0497   -2.0217   -2.2634 H   0  0  0  0  0  0  0  0  0  0  0  0
   -0.0689   -0.2841   -1.7973 H   0  0  0  0  0  0  0  0  0  0  0  0
   -2.3326    2.6405    0.1921 H   0  0  0  0  0  0  0  0  0  0  0  0
   -3.3753    2.0332    1.5066 H   0  0  0  0  0  0  0  0  0  0  0  0
   -0.4633    2.9331    1.8031 H   0  0  0  0  0  0  0  0  0  0  0  0
   -1.8781    3.8543    2.3344 H   0  0  0  0  0  0  0  0  0  0  0  0
   -1.4789    2.3129    3.1164 H   0  0  0  0  0  0  0  0  0  0  0  0
   -4.5334   -1.4048   -1.1736 H   0  0  0  0  0  0  0  0  0  0  0  0
   -4.1125   -2.6918   -0.0102 H   0  0  0  0  0  0  0  0  0  0  0  0
   -6.2545   -0.5395    0.4043 H   0  0  0  0  0  0  0  0  0  0  0  0
   -6.5528   -2.2467    0.0477 H   0  0  0  0  0  0  0  0  0  0  0  0
   -5.8119   -1.7782    1.5868 H   0  0  0  0  0  0  0  0  0  0  0  0
  1  2  1  0  0  0  0
  2  3  1  0  0  0  0
  3  4  2  0  0  0  0
  4  5  2  0  0  0  0
  4  6  2  0  0  0  0
  6  7  1  0  0  0  0
  7  8  1  0  0  0  0
  4  9  1  0  0  0  0
  9 10  1  0  0  0  0
 10 11  1  0  0  0  0
 11 12  1  0  0  0  0
 12 13  2  0  0  0  0
 12 14  2  0  0  0  0
 14 15  1  0  0  0  0
 15 16  1  0  0  0  0
 12 17  2  0  0  0  0
 17 18  1  0  0  0  0
 18 19  1  0  0  0  0
  1 20  1  0  0  0  0
  1 21  1  0  0  0  0
  1 22  1  0  0  0  0
  2 23  1  0  0  0  0
  2 24  1  0  0  0  0
  7 25  1  0  0  0  0
  7 26  1  0  0  0  0
  8 27  1  0  0  0  0
  8 28  1  0  0  0  0
  8 29  1  0  0  0  0
 10 30  1  0  0  0  0
 10 31  1  0  0  0  0
 15 32  1  0  0  0  0
 15 33  1  0  0  0  0
 16 34  1  0  0  0  0
 16 35  1  0  0  0  0
 16 36  1  0  0  0  0
 18 37  1  0  0  0  0
 18 38  1  0  0  0  0
 19 39  1  0  0  0  0
 19 40  1  0  0  0  0
 19 41  1  0  0  0  0
M  END
