 xtb: 6.7.1 (edcfbbe)
          04092505213D

 41 40  0     0  0            999 V2000
    2.4823    0.1912   -2.9780 C   0  0  0  0  0  0  0  0  0  0  0  0
    2.7575    1.0996   -1.7969 C   0  0  0  0  0  0  0  0  0  0  0  0
    3.1809    0.3352   -0.6531 O   0  0  0  0  0  0  0  0  0  0  0  0
    2.2439   -0.1395    0.5315 P   0  0  0  0  0  0  0  0  0  0  0  0
    1.2050    1.2656    1.4353 S   0  0  0  0  0  0  0  0  0  0  0  0
    3.2749   -0.8743    1.4819 O   0  0  0  0  0  0  0  0  0  0  0  0
    4.0023   -0.1910    2.5230 C   0  0  0  0  0  0  0  0  0  0  0  0
    5.0387    0.7571    1.9582 C   0  0  0  0  0  0  0  0  0  0  0  0
    1.2086   -1.8261   -0.1873 S   0  0  0  0  0  0  0  0  0  0  0  0
   -0.0921   -1.8924    1.0941 C   0  0  0  0  0  0  0  0  0  0  0  0
   -1.7627   -2.0259    0.4060 S   0  0  0  0  0  0  0  0  0  0  0  0
   -2.0876   -0.0473   -0.2538 P   0  0  0  0  0  0  0  0  0  0  0  0
   -0.8339    0.7703   -1.5264 S   0  0  0  0  0  0  0  0  0  0  0  0
   -2.2784    0.6773    1.1365 O   0  0  0  0  0  0  0  0  0  0  0  0
   -2.2521    2.1119    1.2819 C   0  0  0  0  0  0  0  0  0  0  0  0
   -3.3874    2.7764    0.5346 C   0  0  0  0  0  0  0  0  0  0  0  0
   -3.5728   -0.1429   -0.8045 O   0  0  0  0  0  0  0  0  0  0  0  0
   -3.8755   -0.6085   -2.1345 C   0  0  0  0  0  0  0  0  0  0  0  0
   -5.2337   -0.0605   -2.5245 C   0  0  0  0  0  0  0  0  0  0  0  0
    1.6148   -0.4346   -2.7799 H   0  0  0  0  0  0  0  0  0  0  0  0
    2.2778    0.8004   -3.8522 H   0  0  0  0  0  0  0  0  0  0  0  0
    3.3427   -0.4441   -3.1677 H   0  0  0  0  0  0  0  0  0  0  0  0
    1.8699    1.6849   -1.5378 H   0  0  0  0  0  0  0  0  0  0  0  0
    3.5925    1.7725   -2.0013 H   0  0  0  0  0  0  0  0  0  0  0  0
    3.2848    0.3494    3.1491 H   0  0  0  0  0  0  0  0  0  0  0  0
    4.4598   -1.0003    3.0934 H   0  0  0  0  0  0  0  0  0  0  0  0
    5.6878    0.2319    1.2628 H   0  0  0  0  0  0  0  0  0  0  0  0
    4.5453    1.5726    1.4310 H   0  0  0  0  0  0  0  0  0  0  0  0
    5.6314    1.1681    2.7695 H   0  0  0  0  0  0  0  0  0  0  0  0
   -0.0268   -0.9908    1.7075 H   0  0  0  0  0  0  0  0  0  0  0  0
    0.0543   -2.7906    1.6876 H   0  0  0  0  0  0  0  0  0  0  0  0
   -2.3263    2.2615    2.3599 H   0  0  0  0  0  0  0  0  0  0  0  0
   -1.2815    2.4785    0.9327 H   0  0  0  0  0  0  0  0  0  0  0  0
   -4.3374    2.3404    0.8324 H   0  0  0  0  0  0  0  0  0  0  0  0
   -3.3883    3.8393    0.7551 H   0  0  0  0  0  0  0  0  0  0  0  0
   -3.2541    2.6371   -0.5377 H   0  0  0  0  0  0  0  0  0  0  0  0
   -3.0908   -0.2596   -2.8147 H   0  0  0  0  0  0  0  0  0  0  0  0
   -3.8756   -1.7013   -2.1178 H   0  0  0  0  0  0  0  0  0  0  0  0
   -5.4967   -0.4315   -3.5096 H   0  0  0  0  0  0  0  0  0  0  0  0
   -5.9816   -0.3827   -1.8060 H   0  0  0  0  0  0  0  0  0  0  0  0
   -5.2097    1.0254   -2.5453 H   0  0  0  0  0  0  0  0  0  0  0  0
  1  2  1  0  0  0  0
  2  3  1  0  0  0  0
  3  4  2  0  0  0  0
  4  5  2  0  0  0  0
  4  6  2  0  0  0  0
  6  7  1  0  0  0  0
  7  8  1  0  0  0  0
  4  9  1  0  0  0  0
  9 10  1  0  0  0  0
 10 11  1  0  0  0  0
 11 12  1  0  0  0  0
 12 13  2  0  0  0  0
 12 14  2  0  0  0  0
 14 15  1  0  0  0  0
 15 16  1  0  0  0  0
 12 17  2  0  0  0  0
 17 18  1  0  0  0  0
 18 19  1  0  0  0  0
  1 20  1  0  0  0  0
  1 21  1  0  0  0  0
  1 22  1  0  0  0  0
  2 23  1  0  0  0  0
  2 24  1  0  0  0  0
  7 25  1  0  0  0  0
  7 26  1  0  0  0  0
  8 27  1  0  0  0  0
  8 28  1  0  0  0  0
  8 29  1  0  0  0  0
 10 30  1  0  0  0  0
 10 31  1  0  0  0  0
 15 32  1  0  0  0  0
 15 33  1  0  0  0  0
 16 34  1  0  0  0  0
 16 35  1  0  0  0  0
 16 36  1  0  0  0  0
 18 37  1  0  0  0  0
 18 38  1  0  0  0  0
 19 39  1  0  0  0  0
 19 40  1  0  0  0  0
 19 41  1  0  0  0  0
M  END
