41
 xtb: 6.7.1 (edcfbbe)
C            5.35175656410136       -1.98486790902269       -1.92805842027365
C            4.57446825043450       -0.76175384052962       -1.51801383899894
O            3.50273949995848       -1.21157334077686       -0.61685684291116
P            2.44121956599437       -0.16227581698189       -0.01073801165560
S            3.14271104074424        1.54210090859114        0.61876797970709
O            1.68567236884982       -1.08264322151703        1.06506326908576
C            2.32039316117215       -1.38882009136654        2.36026652129278
C            1.25192078411009       -1.95568148112198        3.25753008484951
S            1.01394005331653       -0.06155468262169       -1.57172699849574
C            0.14204929889058        1.49823198279516       -1.14994378543887
S           -0.90128566085252        1.46848281992989        0.35679603606702
P           -2.56597272992820        0.34124221556163       -0.34935154643797
S           -3.15519411005270        0.76934931586050       -2.15348063581119
O           -3.58264065095870        0.49570398510401        0.88528833632191
C           -4.01863826657346        1.76361648419660        1.49290862047016
C           -4.87603793972340        2.59646605220424        0.57431811359536
O           -2.20808998947084       -1.21829317768856       -0.25384816412842
C           -1.72466736695246       -1.83578601684766        0.99507559760386
C           -2.78671835925149       -2.75317102811708        1.54545685475510
H            5.79135455579133       -2.47814415220206       -1.05658279952753
H            4.71378626206950       -2.69650815164383       -2.45944635298041
H            6.16178573572049       -1.67960970247048       -2.59741518890023
H            4.11814291797872       -0.26324272172859       -2.37979870749422
H            5.19653068218670       -0.04516878492625       -0.97400011769750
H            3.12629968490791       -2.10530708726891        2.17413164945148
H            2.74134483540134       -0.46435719433877        2.76754680136174
H            0.80758951739911       -2.85581856805702        2.82306253953873
H            1.70484958783749       -2.22405828463779        4.21702515877008
H            0.46470657483711       -1.21886833429962        3.44108555239185
H           -0.47612232016262        1.74318694612223       -2.01945622447982
H            0.87874737219460        2.29001790859657       -0.98736962131872
H           -4.57765678464607        1.43298327843897        2.37041263220287
H           -3.13313170683240        2.31019919713895        1.83108137406316
H           -4.30499080133314        2.98882118560564       -0.27042401200420
H           -5.72389033334523        2.01833962562466        0.19615210954508
H           -5.26446404570726        3.44311732031319        1.15000202031860
H           -0.82378720945700       -2.38175961611230        0.70687062979957
H           -1.45090774482951       -1.05394681022432        1.70924249073504
H           -3.05393891175159       -3.52314526923363        0.81625572979594
H           -2.39412076901876       -3.24814203731809        2.43995124774389
H           -3.68502436858291       -2.19589810064705        1.82475542474346
