  24
 
 C         -3.5889338866        1.4860726339       -0.0799233069
 C         -4.6972705578        0.5957333238       -0.5756508154
 C         -4.5994612772       -0.7158696322       -0.7425482079
 C         -3.3800481121       -1.5372695146       -0.4177562228
 C         -2.4698756866       -0.6842813973        0.4524485543
 H         -2.9523567865       -0.5638362382        1.4315333207
 C         -2.2911357970        0.6991595974       -0.1748975792
 H         -2.0478303882        0.5715298450       -1.2384391201
 C         -1.0297040110        1.2131574596        0.4561854576
 O         -0.6207543867        2.3316778369        0.5974839819
 N         -0.3147772210        0.0640932306        0.8388445878
 C         -1.0665665145       -1.1209902576        0.7582018611
 O         -0.6112914163       -2.2127675008        0.9583725260
 S          1.2823890044        0.1089380072        1.4000074310
 C          2.1951375855       -0.0203869722       -0.1841326707
 Cl         3.9004141223        0.0110394883        0.2641489579
 Cl         1.8186530182       -1.5350898794       -1.0379911092
 Cl         1.8275611641        1.3446780530       -1.2662572984
 H         -3.7835509578        1.7898771592        0.9517576104
 H         -3.5393208412        2.3937748709       -0.6821835969
 H         -5.6223310766        1.0994116545       -0.8118012817
 H         -5.4398102320       -1.2720148356       -1.1295316338
 H         -3.6709325755       -2.4512192428        0.1010556222
 H         -2.8707121151       -1.8335309669       -1.3385633113
          24
        -51.31137128
 C         -3.6095234741       -1.4800735459        0.0209868083
 C         -4.7149705915       -0.6012291116        0.5430079443
 C         -4.6102957195        0.7028374075        0.7579073525
 C         -3.3839668845        1.5274973081        0.4696987292
 C         -2.4763211840        0.7012507812       -0.4284726681
 H         -2.9572499884        0.6189819228       -1.4123171373
 C         -2.3073701063       -0.7048572110        0.1490417737
 H         -2.0674153478       -0.6175090456        1.2174146066
 C         -1.0464956395       -1.2030880313       -0.4957077698
 O         -0.6424050551       -2.3181000221       -0.6736887590
 N         -0.3247385090       -0.0452371220       -0.8372248213
 C         -1.0700891667        1.1405720978       -0.7159006107
 O         -0.6084812769        2.2362060810       -0.8761499807
 S          1.2727488726       -0.0799765420       -1.3982333475
 C          2.1863867627        0.0046117110        0.1885808582
 Cl         3.8912463702       -0.0469738717       -0.2611116132
 Cl         1.8363902617        1.5107388107        1.0700242189
 Cl         1.7935455459       -1.3729833926        1.2438432319
 H         -3.8015116453       -1.7461337395       -1.0215701922
 H         -3.5679524132       -2.4087573699        0.5910035484
 H         -5.6444635767       -1.1073214557        0.7553832971
 H         -5.4495241991        1.2498355379        1.1600044357
 H         -3.6658221367        2.4626544900       -0.0151447638
 H         -2.8765635274        1.7846093037        1.4032355979
