41
 xtb: 6.7.1 (edcfbbe)
C            1.08777489122522        2.13956512980517        1.79738104756653
C            2.51732727314603        1.69931164787316        1.99330134270038
O            3.05313653947494        0.99789956861139        0.81911285412965
P            2.58763030671227       -0.48990610482600        0.40773559085298
S            2.12226101627598       -1.68411308802420        1.87411818330023
O            3.81720166306769       -0.91813072840429       -0.53429571453643
C            5.16328400704597       -1.05534826257917        0.05962661721740
C            5.73006895122084       -2.38568794981239       -0.36131784966321
S            1.10232680364639       -0.18607571878261       -1.08011368325509
C           -0.14041488329726       -1.47195784095479       -0.66442951215932
S           -1.37010102666514       -1.05671950302687        0.63469164326538
P           -2.58539696604040        0.32643562745469       -0.40954320674279
S           -2.91714552674451       -0.04590725380785       -2.29454024382937
O           -1.83790192207710        1.70383291125952       -0.06035160388686
C           -2.23920875796896        2.96139670213606       -0.71840903072674
C           -1.14431936561946        3.39915574953858       -1.65696398087291
O           -3.87600563878009        0.42272437823868        0.55005926241175
C           -5.12157518876873       -0.31490597084851        0.29443411689506
C           -5.01109621722406       -1.76917299790149        0.67848031175132
H            0.79195409953616        2.74955234473307        2.65737753243846
H            0.98123032969289        2.74394998777086        0.89200654082196
H            0.40864815222439        1.28466053495552        1.73634430578646
H            2.62688048322918        1.04136023945603        2.86087772335748
H            3.18967227052900        2.55221975955666        2.10646482982667
H            5.74906078837787       -0.21491806162753       -0.32167940977519
H            5.09414188990008       -0.97532979890487        1.14908763346498
H            5.13276329948154       -3.20846664158093        0.04213527826390
H            5.76447081322093       -2.46950104098348       -1.45127395192258
H            6.75080047736582       -2.47618808924637        0.02370639600563
H            0.36103769731565       -2.37942589034576       -0.32016948676867
H           -0.66890644976769       -1.68252696055726       -1.59906300449024
H           -3.19023546576935        2.81578350300253       -1.23981062737584
H           -2.38968945525463        3.67140142190839        0.09848247188262
H           -0.19873513809100        3.52072353978447       -1.12056655960322
H           -1.00623894417393        2.67196281046945       -2.46206174703833
H           -1.41691167123468        4.36249635287602       -2.10020445732163
H           -5.85603187817479        0.20839888263087        0.90986774197893
H           -5.38371827249910       -0.18821611980530       -0.76008681419661
H           -4.69047382919441       -1.87839953597279        1.71863069762184
H           -5.99797269411333       -2.23155846459281        0.57212886982454
H           -4.31279928131902       -2.30613503886483        0.03026009751188
