 xtb: 6.7.1 (edcfbbe)
          04032520193D

 20 20  0     0  0            999 V2000
    0.6100    1.7018   -0.0353 C   0  0  0  0  0  0  0  0  0  0  0  0
    1.3939    0.4041   -0.2510 C   0  0  0  0  0  0  0  0  0  0  0  0
    1.6087    0.2758   -1.3177 H   0  0  0  0  0  0  0  0  0  0  0  0
    0.5465   -0.7923    0.2196 C   0  0  0  0  0  0  0  0  0  0  0  0
    0.3573   -0.7035    1.3035 H   0  0  0  0  0  0  0  0  0  0  0  0
   -0.8036   -0.7667   -0.5126 C   0  0  0  0  0  0  0  0  0  0  0  0
   -0.6257   -0.9191   -1.5813 H   0  0  0  0  0  0  0  0  0  0  0  0
   -1.4678    0.6110   -0.2978 C   0  0  0  0  0  0  0  0  0  0  0  0
   -2.3536    0.6838   -0.9429 H   0  0  0  0  0  0  0  0  0  0  0  0
   -0.6390    1.6685   -0.7098 O   0  0  0  0  0  0  0  0  0  0  0  0
   -1.8077    0.7039    1.0514 O   0  0  0  0  0  0  0  0  0  0  0  0
   -1.6688   -1.7925   -0.1183 O   0  0  0  0  0  0  0  0  0  0  0  0
    1.1990   -2.0096   -0.0489 O   0  0  0  0  0  0  0  0  0  0  0  0
    2.6463    0.4170    0.3877 O   0  0  0  0  0  0  0  0  0  0  0  0
    1.1442    2.5550   -0.4528 H   0  0  0  0  0  0  0  0  0  0  0  0
    0.4466    1.8542    1.0399 H   0  0  0  0  0  0  0  0  0  0  0  0
   -2.3981    1.4577    1.2007 H   0  0  0  0  0  0  0  0  0  0  0  0
   -1.8978   -1.6660    0.8162 H   0  0  0  0  0  0  0  0  0  0  0  0
    2.1444   -1.8926    0.1379 H   0  0  0  0  0  0  0  0  0  0  0  0
    2.5366    0.6478    1.3226 H   0  0  0  0  0  0  0  0  0  0  0  0
  1  2  1  0  0  0  0
  2  3  1  0  0  0  0
  2  4  1  0  0  0  0
  4  5  1  0  0  0  0
  4  6  1  0  0  0  0
  6  7  1  0  0  0  0
  6  8  1  0  0  0  0
  8  9  1  0  0  0  0
  1 10  1  0  0  0  0
  8 10  1  0  0  0  0
  8 11  1  0  0  0  0
  6 12  1  0  0  0  0
  4 13  1  0  0  0  0
  2 14  1  0  0  0  0
  1 15  1  0  0  0  0
  1 16  1  0  0  0  0
 11 17  1  0  0  0  0
 12 18  1  0  0  0  0
 13 19  1  0  0  0  0
 14 20  1  0  0  0  0
M  END
