 xtb: 6.7.1 (edcfbbe)
          04092505213D

 41 40  0     0  0            999 V2000
    2.7045   -1.8889    2.5101 C   0  0  0  0  0  0  0  0  0  0  0  0
    1.7452   -0.7182    2.5395 C   0  0  0  0  0  0  0  0  0  0  0  0
    1.1861   -0.4362    1.2373 O   0  0  0  0  0  0  0  0  0  0  0  0
    2.0338   -0.0754   -0.0462 P   0  0  0  0  0  0  0  0  0  0  0  0
    2.8288   -1.5433   -1.0840 S   0  0  0  0  0  0  0  0  0  0  0  0
    3.0667    0.9862    0.5236 O   0  0  0  0  0  0  0  0  0  0  0  0
    4.1885    1.4606   -0.2486 C   0  0  0  0  0  0  0  0  0  0  0  0
    5.2855    1.8664    0.7152 C   0  0  0  0  0  0  0  0  0  0  0  0
    0.6519    1.0994   -1.1469 S   0  0  0  0  0  0  0  0  0  0  0  0
   -0.1658   -0.2806   -1.9827 C   0  0  0  0  0  0  0  0  0  0  0  0
   -0.9782   -1.4027   -0.8180 S   0  0  0  0  0  0  0  0  0  0  0  0
   -2.3878    0.0057   -0.0833 P   0  0  0  0  0  0  0  0  0  0  0  0
   -3.0940    1.2743   -1.4067 S   0  0  0  0  0  0  0  0  0  0  0  0
   -1.7191    0.6865    1.1806 O   0  0  0  0  0  0  0  0  0  0  0  0
   -1.6670    2.1131    1.4043 C   0  0  0  0  0  0  0  0  0  0  0  0
   -0.3969    2.4515    2.1574 C   0  0  0  0  0  0  0  0  0  0  0  0
   -3.4254   -0.9134    0.6872 O   0  0  0  0  0  0  0  0  0  0  0  0
   -4.0443   -2.1017    0.1605 C   0  0  0  0  0  0  0  0  0  0  0  0
   -4.7505   -1.8622   -1.1582 C   0  0  0  0  0  0  0  0  0  0  0  0
    2.2155   -2.7693    2.0990 H   0  0  0  0  0  0  0  0  0  0  0  0
    3.5653   -1.6522    1.8855 H   0  0  0  0  0  0  0  0  0  0  0  0
    3.0450   -2.1034    3.5183 H   0  0  0  0  0  0  0  0  0  0  0  0
    2.2391    0.1856    2.9026 H   0  0  0  0  0  0  0  0  0  0  0  0
    0.8653   -0.9349    3.1477 H   0  0  0  0  0  0  0  0  0  0  0  0
    4.5174    0.6576   -0.9170 H   0  0  0  0  0  0  0  0  0  0  0  0
    3.8477    2.3088   -0.8469 H   0  0  0  0  0  0  0  0  0  0  0  0
    5.6169    1.0078    1.2927 H   0  0  0  0  0  0  0  0  0  0  0  0
    6.1242    2.2604    0.1508 H   0  0  0  0  0  0  0  0  0  0  0  0
    4.9194    2.6303    1.3948 H   0  0  0  0  0  0  0  0  0  0  0  0
    0.5718   -0.8718   -2.5251 H   0  0  0  0  0  0  0  0  0  0  0  0
   -0.9061    0.1555   -2.6534 H   0  0  0  0  0  0  0  0  0  0  0  0
   -1.7107    2.6286    0.4388 H   0  0  0  0  0  0  0  0  0  0  0  0
   -2.5515    2.3779    1.9885 H   0  0  0  0  0  0  0  0  0  0  0  0
   -0.3550    1.8888    3.0854 H   0  0  0  0  0  0  0  0  0  0  0  0
    0.4775    2.2124    1.5572 H   0  0  0  0  0  0  0  0  0  0  0  0
   -0.3945    3.5141    2.3776 H   0  0  0  0  0  0  0  0  0  0  0  0
   -3.2737   -2.8705    0.0535 H   0  0  0  0  0  0  0  0  0  0  0  0
   -4.7481   -2.3903    0.9433 H   0  0  0  0  0  0  0  0  0  0  0  0
   -4.0276   -1.6052   -1.9312 H   0  0  0  0  0  0  0  0  0  0  0  0
   -5.2777   -2.7638   -1.4531 H   0  0  0  0  0  0  0  0  0  0  0  0
   -5.4602   -1.0436   -1.0645 H   0  0  0  0  0  0  0  0  0  0  0  0
  1  2  1  0  0  0  0
  2  3  1  0  0  0  0
  3  4  2  0  0  0  0
  4  5  2  0  0  0  0
  4  6  2  0  0  0  0
  6  7  1  0  0  0  0
  7  8  1  0  0  0  0
  4  9  1  0  0  0  0
  9 10  1  0  0  0  0
 10 11  1  0  0  0  0
 11 12  1  0  0  0  0
 12 13  2  0  0  0  0
 12 14  2  0  0  0  0
 14 15  1  0  0  0  0
 15 16  1  0  0  0  0
 12 17  2  0  0  0  0
 17 18  1  0  0  0  0
 18 19  1  0  0  0  0
  1 20  1  0  0  0  0
  1 21  1  0  0  0  0
  1 22  1  0  0  0  0
  2 23  1  0  0  0  0
  2 24  1  0  0  0  0
  7 25  1  0  0  0  0
  7 26  1  0  0  0  0
  8 27  1  0  0  0  0
  8 28  1  0  0  0  0
  8 29  1  0  0  0  0
 10 30  1  0  0  0  0
 10 31  1  0  0  0  0
 15 32  1  0  0  0  0
 15 33  1  0  0  0  0
 16 34  1  0  0  0  0
 16 35  1  0  0  0  0
 16 36  1  0  0  0  0
 18 37  1  0  0  0  0
 18 38  1  0  0  0  0
 19 39  1  0  0  0  0
 19 40  1  0  0  0  0
 19 41  1  0  0  0  0
M  END
