41
 xtb: 6.7.1 (edcfbbe)
C            5.78255381950060       -0.76246315951458        0.57038659955878
C            4.61763840050616       -0.78807175629669       -0.38435412028376
O            3.50266121820675       -0.09415413901434        0.27551110145739
P            2.11128805881971        0.16200846599278       -0.49892675457160
S            2.22270429169758        0.79194502403568       -2.33843989642228
O            1.35894084334097        1.11026959349017        0.55218478315548
C            1.38449904634712        2.57665064833648        0.44842235615293
C            2.69866538478093        3.13963244942005        0.92990627493217
S            1.17123415518542       -1.71150400959916       -0.19497644710861
C           -0.22674513663096       -1.63888041157639       -1.40374880685595
S           -1.88104912353300       -1.89276417021516       -0.66049559687299
P           -2.37041955347231        0.07703959887308       -0.01359206334548
S           -2.11055006211080        1.48269790404301       -1.32738451037615
O           -1.53577396482442        0.37099737105882        1.32226973873877
C           -1.64007405172765       -0.48753316213290        2.51426936921943
C           -0.45348152320000       -0.18459902308091        3.39159031599241
O           -3.85033326817919       -0.19405727238244        0.55309956242472
C           -5.07278986981290        0.10169539127033       -0.21130743513129
C           -5.34125084203778       -0.93234912226222       -1.27513065754055
H            6.07628020895625        0.26621651776373        0.79788844426914
H            5.53947561247471       -1.28042027639050        1.50229444564687
H            6.63266696317402       -1.26962413091014        0.10425267351708
H            4.30169031616021       -1.81126736065982       -0.61316093244530
H            4.84382631723707       -0.26258582604388       -1.31692917580772
H            1.17124466587448        2.85264315956922       -0.58847877898699
H            0.55023837458577        2.89035222245761        1.07951136831429
H            3.52512766164100        2.84570332009598        0.27581689998507
H            2.63422641027075        4.23266423361865        0.92714976549783
H            2.91560491256995        2.80862002917137        1.94964019334218
H           -0.09546523292035       -2.46215136858695       -2.10998429414069
H           -0.19529346494098       -0.69164434449807       -1.95319608400482
H           -2.58676585243550       -0.25131028893095        3.00826707460002
H           -1.64850409353401       -1.53506887299522        2.19536510164590
H           -0.41938281987646        0.87784849549855        3.64984633341154
H           -0.54453351756334       -0.76130572350749        4.31726757370668
H            0.48196846453018       -0.46449136891237        2.89960472699778
H           -5.85237238145608        0.10564782694357        0.55276704123830
H           -4.97633534942879        1.10750950484662       -0.63038486496464
H           -4.58958649702371       -0.89938618222611       -2.06886362274398
H           -5.36873216824095       -1.93870178991565       -0.84715555312497
H           -6.31815847438870       -0.72206848700315       -1.72284344774488
