 xtb: 6.7.1 (edcfbbe)
          04092505213D

 41 40  0     0  0            999 V2000
    1.7266   -0.8105   -2.9679 C   0  0  0  0  0  0  0  0  0  0  0  0
    3.1476   -0.6149   -2.4802 C   0  0  0  0  0  0  0  0  0  0  0  0
    3.3082   -0.9968   -1.1028 O   0  0  0  0  0  0  0  0  0  0  0  0
    2.6844   -0.1757    0.1085 P   0  0  0  0  0  0  0  0  0  0  0  0
    2.7970    1.7738   -0.0037 S   0  0  0  0  0  0  0  0  0  0  0  0
    3.5186   -0.7142    1.3346 O   0  0  0  0  0  0  0  0  0  0  0  0
    3.6609   -2.1281    1.6434 C   0  0  0  0  0  0  0  0  0  0  0  0
    2.8812   -2.4715    2.8971 C   0  0  0  0  0  0  0  0  0  0  0  0
    0.7524   -1.0186    0.3541 S   0  0  0  0  0  0  0  0  0  0  0  0
    0.1287    0.2883    1.4669 C   0  0  0  0  0  0  0  0  0  0  0  0
   -1.6505    0.1735    1.6839 S   0  0  0  0  0  0  0  0  0  0  0  0
   -2.2621    0.8835   -0.2473 P   0  0  0  0  0  0  0  0  0  0  0  0
   -0.8667    1.6520   -1.3826 S   0  0  0  0  0  0  0  0  0  0  0  0
   -3.3866    1.9313    0.0836 O   0  0  0  0  0  0  0  0  0  0  0  0
   -4.5086    1.6692    0.9652 C   0  0  0  0  0  0  0  0  0  0  0  0
   -5.7031    1.1491    0.1928 C   0  0  0  0  0  0  0  0  0  0  0  0
   -3.0860   -0.3073   -0.9050 O   0  0  0  0  0  0  0  0  0  0  0  0
   -2.4770   -1.4340   -1.5637 C   0  0  0  0  0  0  0  0  0  0  0  0
   -2.3386   -2.6118   -0.6188 C   0  0  0  0  0  0  0  0  0  0  0  0
    1.3792   -1.8121   -2.7262 H   0  0  0  0  0  0  0  0  0  0  0  0
    1.0651   -0.0793   -2.5037 H   0  0  0  0  0  0  0  0  0  0  0  0
    1.6947   -0.6666   -4.0430 H   0  0  0  0  0  0  0  0  0  0  0  0
    3.4524    0.4306   -2.5893 H   0  0  0  0  0  0  0  0  0  0  0  0
    3.8475   -1.2637   -3.0092 H   0  0  0  0  0  0  0  0  0  0  0  0
    3.3239   -2.7170    0.7882 H   0  0  0  0  0  0  0  0  0  0  0  0
    4.7322   -2.2724    1.7895 H   0  0  0  0  0  0  0  0  0  0  0  0
    3.1032   -3.4956    3.1801 H   0  0  0  0  0  0  0  0  0  0  0  0
    3.1691   -1.8070    3.7072 H   0  0  0  0  0  0  0  0  0  0  0  0
    1.8121   -2.3786    2.7228 H   0  0  0  0  0  0  0  0  0  0  0  0
    0.3905    1.2551    1.0296 H   0  0  0  0  0  0  0  0  0  0  0  0
    0.5709    0.1708    2.4539 H   0  0  0  0  0  0  0  0  0  0  0  0
   -4.1923    0.9606    1.7357 H   0  0  0  0  0  0  0  0  0  0  0  0
   -4.7202    2.6386    1.4200 H   0  0  0  0  0  0  0  0  0  0  0  0
   -5.9677    1.8470   -0.5969 H   0  0  0  0  0  0  0  0  0  0  0  0
   -5.4758    0.1854   -0.2535 H   0  0  0  0  0  0  0  0  0  0  0  0
   -6.5428    1.0417    0.8723 H   0  0  0  0  0  0  0  0  0  0  0  0
   -3.1550   -1.6648   -2.3875 H   0  0  0  0  0  0  0  0  0  0  0  0
   -1.5068   -1.1285   -1.9674 H   0  0  0  0  0  0  0  0  0  0  0  0
   -3.2980   -2.8383   -0.1627 H   0  0  0  0  0  0  0  0  0  0  0  0
   -1.9950   -3.4747   -1.1795 H   0  0  0  0  0  0  0  0  0  0  0  0
   -1.6155   -2.3935    0.1639 H   0  0  0  0  0  0  0  0  0  0  0  0
  1  2  1  0  0  0  0
  2  3  1  0  0  0  0
  3  4  2  0  0  0  0
  4  5  2  0  0  0  0
  4  6  2  0  0  0  0
  6  7  1  0  0  0  0
  7  8  1  0  0  0  0
  4  9  1  0  0  0  0
  9 10  1  0  0  0  0
 10 11  1  0  0  0  0
 11 12  1  0  0  0  0
 12 13  2  0  0  0  0
 12 14  2  0  0  0  0
 14 15  1  0  0  0  0
 15 16  1  0  0  0  0
 12 17  2  0  0  0  0
 17 18  1  0  0  0  0
 18 19  1  0  0  0  0
  1 20  1  0  0  0  0
  1 21  1  0  0  0  0
  1 22  1  0  0  0  0
  2 23  1  0  0  0  0
  2 24  1  0  0  0  0
  7 25  1  0  0  0  0
  7 26  1  0  0  0  0
  8 27  1  0  0  0  0
  8 28  1  0  0  0  0
  8 29  1  0  0  0  0
 10 30  1  0  0  0  0
 10 31  1  0  0  0  0
 15 32  1  0  0  0  0
 15 33  1  0  0  0  0
 16 34  1  0  0  0  0
 16 35  1  0  0  0  0
 16 36  1  0  0  0  0
 18 37  1  0  0  0  0
 18 38  1  0  0  0  0
 19 39  1  0  0  0  0
 19 40  1  0  0  0  0
 19 41  1  0  0  0  0
M  END
