 xtb: 6.7.1 (edcfbbe)
          04092514003D

 41 40  0     0  0            999 V2000
    4.3091   -2.7081   -0.0681 C   0  0  0  0  0  0  0  0  0  0  0  0
    4.6054   -1.2732    0.3194 C   0  0  0  0  0  0  0  0  0  0  0  0
    3.4309   -0.5635    0.7556 O   0  0  0  0  0  0  0  0  0  0  0  0
    2.2819   -0.0680   -0.2256 P   0  0  0  0  0  0  0  0  0  0  0  0
    2.8871    0.5096   -2.0020 S   0  0  0  0  0  0  0  0  0  0  0  0
    1.5643    1.0346    0.6651 O   0  0  0  0  0  0  0  0  0  0  0  0
    1.8185    2.4434    0.5189 C   0  0  0  0  0  0  0  0  0  0  0  0
    3.1455    2.8450    1.1290 C   0  0  0  0  0  0  0  0  0  0  0  0
    0.8428   -1.5997   -0.1188 S   0  0  0  0  0  0  0  0  0  0  0  0
   -0.1900   -1.0952   -1.5245 C   0  0  0  0  0  0  0  0  0  0  0  0
   -0.8491    0.6017   -1.4362 S   0  0  0  0  0  0  0  0  0  0  0  0
   -2.2708    0.4424    0.1189 P   0  0  0  0  0  0  0  0  0  0  0  0
   -3.4385    2.0034    0.3060 S   0  0  0  0  0  0  0  0  0  0  0  0
   -1.3459    0.1047    1.3560 O   0  0  0  0  0  0  0  0  0  0  0  0
   -1.7764    0.3347    2.7146 C   0  0  0  0  0  0  0  0  0  0  0  0
   -2.8219   -0.6691    3.1521 C   0  0  0  0  0  0  0  0  0  0  0  0
   -3.0164   -0.9442   -0.1322 O   0  0  0  0  0  0  0  0  0  0  0  0
   -4.1301   -1.0583   -1.0413 C   0  0  0  0  0  0  0  0  0  0  0  0
   -4.9006   -2.3152   -0.6871 C   0  0  0  0  0  0  0  0  0  0  0  0
    3.7842   -3.2186    0.7350 H   0  0  0  0  0  0  0  0  0  0  0  0
    3.6935   -2.7370   -0.9655 H   0  0  0  0  0  0  0  0  0  0  0  0
    5.2459   -3.2202   -0.2668 H   0  0  0  0  0  0  0  0  0  0  0  0
    5.0448   -0.7307   -0.5238 H   0  0  0  0  0  0  0  0  0  0  0  0
    5.2729   -1.2231    1.1812 H   0  0  0  0  0  0  0  0  0  0  0  0
    1.7876    2.6947   -0.5471 H   0  0  0  0  0  0  0  0  0  0  0  0
    0.9778    2.9197    1.0274 H   0  0  0  0  0  0  0  0  0  0  0  0
    3.1970    2.5218    2.1653 H   0  0  0  0  0  0  0  0  0  0  0  0
    3.9635    2.3878    0.5741 H   0  0  0  0  0  0  0  0  0  0  0  0
    3.2465    3.9251    1.0816 H   0  0  0  0  0  0  0  0  0  0  0  0
   -1.0057   -1.8117   -1.5716 H   0  0  0  0  0  0  0  0  0  0  0  0
    0.4028   -1.1089   -2.4385 H   0  0  0  0  0  0  0  0  0  0  0  0
   -0.8575    0.2442    3.2958 H   0  0  0  0  0  0  0  0  0  0  0  0
   -2.1653    1.3560    2.7873 H   0  0  0  0  0  0  0  0  0  0  0  0
   -3.7453   -0.5095    2.5974 H   0  0  0  0  0  0  0  0  0  0  0  0
   -2.4690   -1.6808    2.9708 H   0  0  0  0  0  0  0  0  0  0  0  0
   -3.0202   -0.5392    4.2118 H   0  0  0  0  0  0  0  0  0  0  0  0
   -4.7545   -0.1639   -0.9449 H   0  0  0  0  0  0  0  0  0  0  0  0
   -3.7387   -1.1061   -2.0614 H   0  0  0  0  0  0  0  0  0  0  0  0
   -4.2443   -3.1797   -0.7265 H   0  0  0  0  0  0  0  0  0  0  0  0
   -5.3167   -2.2350    0.3129 H   0  0  0  0  0  0  0  0  0  0  0  0
   -5.7089   -2.4459   -1.3994 H   0  0  0  0  0  0  0  0  0  0  0  0
  1  2  1  0  0  0  0
  2  3  1  0  0  0  0
  3  4  2  0  0  0  0
  4  5  2  0  0  0  0
  4  6  2  0  0  0  0
  6  7  1  0  0  0  0
  7  8  1  0  0  0  0
  4  9  1  0  0  0  0
  9 10  1  0  0  0  0
 10 11  1  0  0  0  0
 11 12  1  0  0  0  0
 12 13  2  0  0  0  0
 12 14  2  0  0  0  0
 14 15  1  0  0  0  0
 15 16  1  0  0  0  0
 12 17  2  0  0  0  0
 17 18  1  0  0  0  0
 18 19  1  0  0  0  0
  1 20  1  0  0  0  0
  1 21  1  0  0  0  0
  1 22  1  0  0  0  0
  2 23  1  0  0  0  0
  2 24  1  0  0  0  0
  7 25  1  0  0  0  0
  7 26  1  0  0  0  0
  8 27  1  0  0  0  0
  8 28  1  0  0  0  0
  8 29  1  0  0  0  0
 10 30  1  0  0  0  0
 10 31  1  0  0  0  0
 15 32  1  0  0  0  0
 15 33  1  0  0  0  0
 16 34  1  0  0  0  0
 16 35  1  0  0  0  0
 16 36  1  0  0  0  0
 18 37  1  0  0  0  0
 18 38  1  0  0  0  0
 19 39  1  0  0  0  0
 19 40  1  0  0  0  0
 19 41  1  0  0  0  0
M  END
