 xtb: 6.7.1 (edcfbbe)
          04092505213D

 41 40  0     0  0            999 V2000
    5.2151   -2.3772   -1.6021 C   0  0  0  0  0  0  0  0  0  0  0  0
    4.1788   -1.2746   -1.6827 C   0  0  0  0  0  0  0  0  0  0  0  0
    3.2449   -1.4645   -0.6002 O   0  0  0  0  0  0  0  0  0  0  0  0
    2.3016   -0.2931   -0.0958 P   0  0  0  0  0  0  0  0  0  0  0  0
    3.1950    1.4240    0.2397 S   0  0  0  0  0  0  0  0  0  0  0  0
    1.5842   -0.9713    1.1422 O   0  0  0  0  0  0  0  0  0  0  0  0
    2.0622   -0.7884    2.4916 C   0  0  0  0  0  0  0  0  0  0  0  0
    3.3778   -1.5030    2.7136 C   0  0  0  0  0  0  0  0  0  0  0  0
    0.7445   -0.2744   -1.5213 S   0  0  0  0  0  0  0  0  0  0  0  0
    0.0533    1.3354   -1.0472 C   0  0  0  0  0  0  0  0  0  0  0  0
   -0.6529    1.3405    0.6197 S   0  0  0  0  0  0  0  0  0  0  0  0
   -2.5564    0.4646    0.1791 P   0  0  0  0  0  0  0  0  0  0  0  0
   -3.1106    0.6501   -1.6967 S   0  0  0  0  0  0  0  0  0  0  0  0
   -3.5115    1.1267    1.2486 O   0  0  0  0  0  0  0  0  0  0  0  0
   -4.1468    2.3984    1.0044 C   0  0  0  0  0  0  0  0  0  0  0  0
   -5.5960    2.1913    0.6091 C   0  0  0  0  0  0  0  0  0  0  0  0
   -2.5721   -0.9648    0.8518 O   0  0  0  0  0  0  0  0  0  0  0  0
   -1.7143   -2.0747    0.5370 C   0  0  0  0  0  0  0  0  0  0  0  0
   -1.9925   -2.6559   -0.8352 C   0  0  0  0  0  0  0  0  0  0  0  0
    5.7616   -2.3120   -0.6656 H   0  0  0  0  0  0  0  0  0  0  0  0
    4.7283   -3.3463   -1.6594 H   0  0  0  0  0  0  0  0  0  0  0  0
    5.9097   -2.2735   -2.4292 H   0  0  0  0  0  0  0  0  0  0  0  0
    3.6232   -1.3165   -2.6233 H   0  0  0  0  0  0  0  0  0  0  0  0
    4.6358   -0.2844   -1.5803 H   0  0  0  0  0  0  0  0  0  0  0  0
    2.1631    0.2853    2.6803 H   0  0  0  0  0  0  0  0  0  0  0  0
    1.2640   -1.1978    3.1120 H   0  0  0  0  0  0  0  0  0  0  0  0
    3.2856   -2.5517    2.4444 H   0  0  0  0  0  0  0  0  0  0  0  0
    4.1513   -1.0471    2.0965 H   0  0  0  0  0  0  0  0  0  0  0  0
    3.6633   -1.4184    3.7574 H   0  0  0  0  0  0  0  0  0  0  0  0
   -0.7268    1.5647   -1.7748 H   0  0  0  0  0  0  0  0  0  0  0  0
    0.8457    2.0828   -1.0544 H   0  0  0  0  0  0  0  0  0  0  0  0
   -4.0627    2.9441    1.9458 H   0  0  0  0  0  0  0  0  0  0  0  0
   -3.6049    2.9365    0.2206 H   0  0  0  0  0  0  0  0  0  0  0  0
   -6.1070    1.6045    1.3669 H   0  0  0  0  0  0  0  0  0  0  0  0
   -6.0827    3.1560    0.5086 H   0  0  0  0  0  0  0  0  0  0  0  0
   -5.6512    1.6637   -0.3407 H   0  0  0  0  0  0  0  0  0  0  0  0
   -0.6696   -1.7603    0.6237 H   0  0  0  0  0  0  0  0  0  0  0  0
   -1.9398   -2.7976    1.3237 H   0  0  0  0  0  0  0  0  0  0  0  0
   -1.7234   -1.9463   -1.6155 H   0  0  0  0  0  0  0  0  0  0  0  0
   -1.4020   -3.5571   -0.9658 H   0  0  0  0  0  0  0  0  0  0  0  0
   -3.0478   -2.8979   -0.9326 H   0  0  0  0  0  0  0  0  0  0  0  0
  1  2  1  0  0  0  0
  2  3  1  0  0  0  0
  3  4  2  0  0  0  0
  4  5  2  0  0  0  0
  4  6  2  0  0  0  0
  6  7  1  0  0  0  0
  7  8  1  0  0  0  0
  4  9  1  0  0  0  0
  9 10  1  0  0  0  0
 10 11  1  0  0  0  0
 11 12  1  0  0  0  0
 12 13  2  0  0  0  0
 12 14  2  0  0  0  0
 14 15  1  0  0  0  0
 15 16  1  0  0  0  0
 12 17  2  0  0  0  0
 17 18  1  0  0  0  0
 18 19  1  0  0  0  0
  1 20  1  0  0  0  0
  1 21  1  0  0  0  0
  1 22  1  0  0  0  0
  2 23  1  0  0  0  0
  2 24  1  0  0  0  0
  7 25  1  0  0  0  0
  7 26  1  0  0  0  0
  8 27  1  0  0  0  0
  8 28  1  0  0  0  0
  8 29  1  0  0  0  0
 10 30  1  0  0  0  0
 10 31  1  0  0  0  0
 15 32  1  0  0  0  0
 15 33  1  0  0  0  0
 16 34  1  0  0  0  0
 16 35  1  0  0  0  0
 16 36  1  0  0  0  0
 18 37  1  0  0  0  0
 18 38  1  0  0  0  0
 19 39  1  0  0  0  0
 19 40  1  0  0  0  0
 19 41  1  0  0  0  0
M  END
