 xtb: 6.7.1 (edcfbbe)
          04092505203D

 41 40  0     0  0            999 V2000
    3.0404    0.8725   -2.2093 C   0  0  0  0  0  0  0  0  0  0  0  0
    2.1889   -0.3783   -2.2547 C   0  0  0  0  0  0  0  0  0  0  0  0
    1.3241   -0.4984   -1.1051 O   0  0  0  0  0  0  0  0  0  0  0  0
    1.8109   -0.5171    0.3988 P   0  0  0  0  0  0  0  0  0  0  0  0
    2.3767    1.1348    1.3048 S   0  0  0  0  0  0  0  0  0  0  0  0
    2.9467   -1.6286    0.3300 O   0  0  0  0  0  0  0  0  0  0  0  0
    3.8203   -1.9064    1.4419 C   0  0  0  0  0  0  0  0  0  0  0  0
    5.1352   -2.4245    0.8942 C   0  0  0  0  0  0  0  0  0  0  0  0
    0.2182   -1.5148    1.3411 S   0  0  0  0  0  0  0  0  0  0  0  0
   -0.6971   -0.1101    2.0570 C   0  0  0  0  0  0  0  0  0  0  0  0
   -2.3566    0.0814    1.3711 S   0  0  0  0  0  0  0  0  0  0  0  0
   -1.8366    0.7584   -0.5778 P   0  0  0  0  0  0  0  0  0  0  0  0
   -0.4292    2.1124   -0.6805 S   0  0  0  0  0  0  0  0  0  0  0  0
   -3.2413    1.2054   -1.1782 O   0  0  0  0  0  0  0  0  0  0  0  0
   -3.7768    2.5304   -1.0121 C   0  0  0  0  0  0  0  0  0  0  0  0
   -4.1501    2.8284    0.4254 C   0  0  0  0  0  0  0  0  0  0  0  0
   -1.5197   -0.5242   -1.4398 O   0  0  0  0  0  0  0  0  0  0  0  0
   -2.4899   -1.5724   -1.7158 C   0  0  0  0  0  0  0  0  0  0  0  0
   -2.1880   -2.8153   -0.9034 C   0  0  0  0  0  0  0  0  0  0  0  0
    3.7363    0.8238   -1.3723 H   0  0  0  0  0  0  0  0  0  0  0  0
    3.6001    0.9661   -3.1345 H   0  0  0  0  0  0  0  0  0  0  0  0
    2.4092    1.7502   -2.0782 H   0  0  0  0  0  0  0  0  0  0  0  0
    2.8084   -1.2764   -2.3075 H   0  0  0  0  0  0  0  0  0  0  0  0
    1.4887   -0.3531   -3.0919 H   0  0  0  0  0  0  0  0  0  0  0  0
    3.9600   -0.9833    2.0149 H   0  0  0  0  0  0  0  0  0  0  0  0
    3.3290   -2.6510    2.0726 H   0  0  0  0  0  0  0  0  0  0  0  0
    4.9630   -3.3119    0.2921 H   0  0  0  0  0  0  0  0  0  0  0  0
    5.6116   -1.6662    0.2787 H   0  0  0  0  0  0  0  0  0  0  0  0
    5.7899   -2.6733    1.7228 H   0  0  0  0  0  0  0  0  0  0  0  0
   -0.1138    0.8011    1.8956 H   0  0  0  0  0  0  0  0  0  0  0  0
   -0.8320   -0.3052    3.1176 H   0  0  0  0  0  0  0  0  0  0  0  0
   -3.0352    3.2490   -1.3744 H   0  0  0  0  0  0  0  0  0  0  0  0
   -4.6508    2.5371   -1.6652 H   0  0  0  0  0  0  0  0  0  0  0  0
   -4.6798    3.7747    0.4667 H   0  0  0  0  0  0  0  0  0  0  0  0
   -4.7840    2.0405    0.8242 H   0  0  0  0  0  0  0  0  0  0  0  0
   -3.2526    2.9016    1.0374 H   0  0  0  0  0  0  0  0  0  0  0  0
   -3.4918   -1.1927   -1.5099 H   0  0  0  0  0  0  0  0  0  0  0  0
   -2.3817   -1.7630   -2.7848 H   0  0  0  0  0  0  0  0  0  0  0  0
   -1.1554   -3.1196   -1.0536 H   0  0  0  0  0  0  0  0  0  0  0  0
   -2.3435   -2.6349    0.1574 H   0  0  0  0  0  0  0  0  0  0  0  0
   -2.8476   -3.6140   -1.2277 H   0  0  0  0  0  0  0  0  0  0  0  0
  1  2  1  0  0  0  0
  2  3  1  0  0  0  0
  3  4  2  0  0  0  0
  4  5  2  0  0  0  0
  4  6  2  0  0  0  0
  6  7  1  0  0  0  0
  7  8  1  0  0  0  0
  4  9  1  0  0  0  0
  9 10  1  0  0  0  0
 10 11  1  0  0  0  0
 11 12  1  0  0  0  0
 12 13  2  0  0  0  0
 12 14  2  0  0  0  0
 14 15  1  0  0  0  0
 15 16  1  0  0  0  0
 12 17  2  0  0  0  0
 17 18  1  0  0  0  0
 18 19  1  0  0  0  0
  1 20  1  0  0  0  0
  1 21  1  0  0  0  0
  1 22  1  0  0  0  0
  2 23  1  0  0  0  0
  2 24  1  0  0  0  0
  7 25  1  0  0  0  0
  7 26  1  0  0  0  0
  8 27  1  0  0  0  0
  8 28  1  0  0  0  0
  8 29  1  0  0  0  0
 10 30  1  0  0  0  0
 10 31  1  0  0  0  0
 15 32  1  0  0  0  0
 15 33  1  0  0  0  0
 16 34  1  0  0  0  0
 16 35  1  0  0  0  0
 16 36  1  0  0  0  0
 18 37  1  0  0  0  0
 18 38  1  0  0  0  0
 19 39  1  0  0  0  0
 19 40  1  0  0  0  0
 19 41  1  0  0  0  0
M  END
