  26
 
 C         -4.0531069552       -0.3919261264       -0.0003830048
 C         -3.9188962177        0.9887210548       -0.0000584446
 C         -2.6584205278        1.5578270682        0.0005486395
 C         -1.5165993193        0.7589251975        0.0008147020
 C         -1.6523080556       -0.6362491731        0.0007903669
 C         -2.9266117071       -1.1956721424        0.0001587720
 C         -0.4743475821       -1.5322911572        0.0009701356
 O         -0.6121847708       -2.7592570426        0.0013098990
 C          0.8285759062       -0.8926175175        0.0010190537
 C          1.9872101899       -1.6814698595        0.0009799131
 C          3.2388271840       -1.1222489742       -0.0023216459
 C          3.3991495956        0.2766914999       -0.0054003503
 C          2.2394211447        1.0714183411       -0.0028914003
 C          0.9768954049        0.5081448688       -0.0001573071
 C         -0.1924243217        1.4052007730        0.0000484205
 O         -0.0721773692        2.6264382802       -0.0003936828
 N          4.6196837411        0.8390289453       -0.0011811361
 H         -5.0334859297       -0.8419750298       -0.0010392421
 H         -4.7940569960        1.6192361593       -0.0003323313
 H         -2.5267136332        2.6299093245        0.0006069373
 H         -3.0050700670       -2.2730547928       -0.0001443162
 H          1.8584501747       -2.7540278457        0.0021886519
 H          4.1138030873       -1.7535413818       -0.0028556377
 H          2.3161827677        2.1492202018       -0.0038026919
 H          4.7142903963        1.8381875899       -0.0335742845
 H          5.4408092137        0.2617145877       -0.0345037057
          26
        -45.62573946
 C         -4.0536573436       -0.3905969144       -0.0031451688
 C         -3.9192072596        0.9899890665       -0.0024366400
 C         -2.6587240071        1.5588778045       -0.0005260749
 C         -1.5171958245        0.7596813780        0.0006194948
 C         -1.6531109370       -0.6354995801        0.0001428290
 C         -2.9274755305       -1.1946620390       -0.0017321550
 C         -0.4752604345       -1.5317698219        0.0015869783
 O         -0.6129197819       -2.7586938699        0.0032996637
 C          0.8281073666       -0.8921311174        0.0008409922
 C          1.9862655551       -1.6812912763        0.0000764915
 C          3.2380343451       -1.1222422355       -0.0012004958
 C          3.3983902149        0.2766723700       -0.0016016317
 C          2.2389584163        1.0719130050       -0.0003473655
 C          0.9764430087        0.5086234781        0.0007920591
 C         -0.1928292173        1.4057685554        0.0020803091
 O         -0.0724017219        2.6270326473        0.0039945177
 N          4.6184857039        0.8386827573       -0.0026293928
 H         -5.0342512118       -0.8400796841       -0.0047736336
 H         -4.7943822207        1.6203811045       -0.0033855912
 H         -2.5273693009        2.6309163866        0.0000630417
 H         -3.0071024167       -2.2718985580       -0.0021226156
 H          1.8581879072       -2.7538275763        0.0001980921
 H          4.1126937248       -1.7537056383       -0.0020228865
 H          2.3162337150        2.1495036858       -0.0003418274
 H          4.7130170547        1.8382877480       -0.0042449780
 H          5.4408304768        0.2624287356       -0.0048157014
