 xtb: 6.7.1 (edcfbbe)
          04092505213D

 41 40  0     0  0            999 V2000
    0.9740    1.4893    2.4313 C   0  0  0  0  0  0  0  0  0  0  0  0
    2.3843    0.9368    2.4631 C   0  0  0  0  0  0  0  0  0  0  0  0
    2.9312    0.7844    1.1434 O   0  0  0  0  0  0  0  0  0  0  0  0
    2.5046   -0.3996    0.1697 P   0  0  0  0  0  0  0  0  0  0  0  0
    2.2102   -2.1310    1.0505 S   0  0  0  0  0  0  0  0  0  0  0  0
    3.6642   -0.3709   -0.9087 O   0  0  0  0  0  0  0  0  0  0  0  0
    4.8831   -1.1269   -0.7532 C   0  0  0  0  0  0  0  0  0  0  0  0
    5.7447   -0.5942    0.3726 C   0  0  0  0  0  0  0  0  0  0  0  0
    0.9656    0.3953   -1.0464 S   0  0  0  0  0  0  0  0  0  0  0  0
   -0.0922   -1.0780   -1.1379 C   0  0  0  0  0  0  0  0  0  0  0  0
   -1.2143   -1.2410    0.2794 S   0  0  0  0  0  0  0  0  0  0  0  0
   -2.5114    0.3200   -0.2885 P   0  0  0  0  0  0  0  0  0  0  0  0
   -2.9213    0.5004   -2.2024 S   0  0  0  0  0  0  0  0  0  0  0  0
   -1.7772    1.5326    0.4151 O   0  0  0  0  0  0  0  0  0  0  0  0
   -2.1172    2.9106    0.1381 C   0  0  0  0  0  0  0  0  0  0  0  0
   -1.1824    3.4906   -0.9050 C   0  0  0  0  0  0  0  0  0  0  0  0
   -3.7977    0.1649    0.6345 O   0  0  0  0  0  0  0  0  0  0  0  0
   -4.9409   -0.6131    0.2391 C   0  0  0  0  0  0  0  0  0  0  0  0
   -4.6331   -2.0961    0.2068 C   0  0  0  0  0  0  0  0  0  0  0  0
    0.9422    2.4076    1.8506 H   0  0  0  0  0  0  0  0  0  0  0  0
    0.2932    0.7681    1.9804 H   0  0  0  0  0  0  0  0  0  0  0  0
    0.6435    1.6922    3.4449 H   0  0  0  0  0  0  0  0  0  0  0  0
    2.4061   -0.0369    2.9642 H   0  0  0  0  0  0  0  0  0  0  0  0
    3.0719    1.6247    2.9574 H   0  0  0  0  0  0  0  0  0  0  0  0
    4.6191   -2.1742   -0.5744 H   0  0  0  0  0  0  0  0  0  0  0  0
    5.3749   -1.0272   -1.7216 H   0  0  0  0  0  0  0  0  0  0  0  0
    5.9125    0.4718    0.2439 H   0  0  0  0  0  0  0  0  0  0  0  0
    5.2511   -0.7609    1.3288 H   0  0  0  0  0  0  0  0  0  0  0  0
    6.6977   -1.1140    0.3724 H   0  0  0  0  0  0  0  0  0  0  0  0
    0.5215   -1.9762   -1.1513 H   0  0  0  0  0  0  0  0  0  0  0  0
   -0.6823   -0.9818   -2.0493 H   0  0  0  0  0  0  0  0  0  0  0  0
   -3.1576    2.9676   -0.1932 H   0  0  0  0  0  0  0  0  0  0  0  0
   -2.0104    3.4167    1.0988 H   0  0  0  0  0  0  0  0  0  0  0  0
   -0.1486    3.3629   -0.5960 H   0  0  0  0  0  0  0  0  0  0  0  0
   -1.3187    2.9826   -1.8572 H   0  0  0  0  0  0  0  0  0  0  0  0
   -1.3962    4.5470   -1.0316 H   0  0  0  0  0  0  0  0  0  0  0  0
   -5.6945   -0.3728    0.9901 H   0  0  0  0  0  0  0  0  0  0  0  0
   -5.2707   -0.2672   -0.7460 H   0  0  0  0  0  0  0  0  0  0  0  0
   -4.2030   -2.4134    1.1536 H   0  0  0  0  0  0  0  0  0  0  0  0
   -5.5474   -2.6503    0.0208 H   0  0  0  0  0  0  0  0  0  0  0  0
   -3.9213   -2.3112   -0.5893 H   0  0  0  0  0  0  0  0  0  0  0  0
  1  2  1  0  0  0  0
  2  3  1  0  0  0  0
  3  4  2  0  0  0  0
  4  5  2  0  0  0  0
  4  6  2  0  0  0  0
  6  7  1  0  0  0  0
  7  8  1  0  0  0  0
  4  9  1  0  0  0  0
  9 10  1  0  0  0  0
 10 11  1  0  0  0  0
 11 12  1  0  0  0  0
 12 13  2  0  0  0  0
 12 14  2  0  0  0  0
 14 15  1  0  0  0  0
 15 16  1  0  0  0  0
 12 17  2  0  0  0  0
 17 18  1  0  0  0  0
 18 19  1  0  0  0  0
  1 20  1  0  0  0  0
  1 21  1  0  0  0  0
  1 22  1  0  0  0  0
  2 23  1  0  0  0  0
  2 24  1  0  0  0  0
  7 25  1  0  0  0  0
  7 26  1  0  0  0  0
  8 27  1  0  0  0  0
  8 28  1  0  0  0  0
  8 29  1  0  0  0  0
 10 30  1  0  0  0  0
 10 31  1  0  0  0  0
 15 32  1  0  0  0  0
 15 33  1  0  0  0  0
 16 34  1  0  0  0  0
 16 35  1  0  0  0  0
 16 36  1  0  0  0  0
 18 37  1  0  0  0  0
 18 38  1  0  0  0  0
 19 39  1  0  0  0  0
 19 40  1  0  0  0  0
 19 41  1  0  0  0  0
M  END
