 xtb: 6.7.1 (edcfbbe)
          04092507313D

 38 37  0     0  0            999 V2000
    5.0837   -1.0477   -2.4885 C   0  0  0  0  0  0  0  0  0  0  0  0
    4.2652   -0.2276   -1.5040 C   0  0  0  0  0  0  0  0  0  0  0  0
    2.9027   -0.6900   -1.4513 O   0  0  0  0  0  0  0  0  0  0  0  0
    2.6110   -1.6833   -0.6338 C   0  0  0  0  0  0  0  0  0  0  0  0
    3.4094   -2.2530    0.0737 O   0  0  0  0  0  0  0  0  0  0  0  0
    1.1362   -2.0435   -0.7002 C   0  0  0  0  0  0  0  0  0  0  0  0
    0.2690   -0.8087   -0.4708 C   0  0  0  0  0  0  0  0  0  0  0  0
    0.4948   -0.0437   -1.2212 H   0  0  0  0  0  0  0  0  0  0  0  0
    0.4849   -0.1981    0.9006 C   0  0  0  0  0  0  0  0  0  0  0  0
   -0.4350    0.0407    1.6570 O   0  0  0  0  0  0  0  0  0  0  0  0
    1.7450    0.0343    1.1445 O   0  0  0  0  0  0  0  0  0  0  0  0
    2.0959    0.7074    2.3748 C   0  0  0  0  0  0  0  0  0  0  0  0
    2.1519    2.2090    2.1501 C   0  0  0  0  0  0  0  0  0  0  0  0
   -1.4961   -1.2440   -0.6078 S   0  0  0  0  0  0  0  0  0  0  0  0
   -2.3204    0.6685   -0.1357 P   0  0  0  0  0  0  0  0  0  0  0  0
   -1.1941    2.2639   -0.2548 S   0  0  0  0  0  0  0  0  0  0  0  0
   -3.4404    0.7859   -1.2591 O   0  0  0  0  0  0  0  0  0  0  0  0
   -4.4680   -0.2025   -1.4467 C   0  0  0  0  0  0  0  0  0  0  0  0
   -3.2621    0.5081    1.1442 O   0  0  0  0  0  0  0  0  0  0  0  0
   -2.9604    0.8283    2.5017 C   0  0  0  0  0  0  0  0  0  0  0  0
    4.6184   -1.0276   -3.4701 H   0  0  0  0  0  0  0  0  0  0  0  0
    6.0830   -0.6310   -2.5578 H   0  0  0  0  0  0  0  0  0  0  0  0
    5.1533   -2.0784   -2.1487 H   0  0  0  0  0  0  0  0  0  0  0  0
    4.1874    0.8128   -1.8204 H   0  0  0  0  0  0  0  0  0  0  0  0
    4.6911   -0.2904   -0.4989 H   0  0  0  0  0  0  0  0  0  0  0  0
    0.9271   -2.8080    0.0483 H   0  0  0  0  0  0  0  0  0  0  0  0
    0.9190   -2.4458   -1.6909 H   0  0  0  0  0  0  0  0  0  0  0  0
    1.3541    0.4500    3.1350 H   0  0  0  0  0  0  0  0  0  0  0  0
    3.0718    0.3003    2.6406 H   0  0  0  0  0  0  0  0  0  0  0  0
    2.4031    2.7023    3.0829 H   0  0  0  0  0  0  0  0  0  0  0  0
    2.9006    2.4510    1.4014 H   0  0  0  0  0  0  0  0  0  0  0  0
    1.1862    2.5731    1.8027 H   0  0  0  0  0  0  0  0  0  0  0  0
   -4.9840    0.0933   -2.3565 H   0  0  0  0  0  0  0  0  0  0  0  0
   -5.1469   -0.1967   -0.5961 H   0  0  0  0  0  0  0  0  0  0  0  0
   -4.0190   -1.1897   -1.5618 H   0  0  0  0  0  0  0  0  0  0  0  0
   -2.5006   -0.0291    2.9888 H   0  0  0  0  0  0  0  0  0  0  0  0
   -3.9158    1.0728    2.9611 H   0  0  0  0  0  0  0  0  0  0  0  0
   -2.2835    1.6813    2.5484 H   0  0  0  0  0  0  0  0  0  0  0  0
  1  2  1  0  0  0  0
  2  3  1  0  0  0  0
  3  4  1  0  0  0  0
  4  5  2  0  0  0  0
  4  6  1  0  0  0  0
  6  7  1  0  0  0  0
  7  8  1  0  0  0  0
  7  9  1  0  0  0  0
  9 10  2  0  0  0  0
  9 11  4  0  0  0  0
 11 12  1  0  0  0  0
 12 13  1  0  0  0  0
  7 14  1  0  0  0  0
 14 15  1  0  0  0  0
 15 16  2  0  0  0  0
 15 17  1  0  0  0  0
 17 18  1  0  0  0  0
 15 19  2  0  0  0  0
 19 20  1  0  0  0  0
  1 21  1  0  0  0  0
  1 22  1  0  0  0  0
  1 23  1  0  0  0  0
  2 24  1  0  0  0  0
  2 25  1  0  0  0  0
  6 26  1  0  0  0  0
  6 27  1  0  0  0  0
 12 28  1  0  0  0  0
 12 29  1  0  0  0  0
 13 30  1  0  0  0  0
 13 31  1  0  0  0  0
 13 32  1  0  0  0  0
 18 33  1  0  0  0  0
 18 34  1  0  0  0  0
 18 35  1  0  0  0  0
 20 36  1  0  0  0  0
 20 37  1  0  0  0  0
 20 38  1  0  0  0  0
M  END
