 xtb: 6.7.1 (edcfbbe)
          04092507313D

 38 37  0     0  0            999 V2000
    5.4178   -1.2807   -0.4431 C   0  0  0  0  0  0  0  0  0  0  0  0
    4.7208   -1.8636   -1.6619 C   0  0  0  0  0  0  0  0  0  0  0  0
    3.3643   -2.2183   -1.3319 O   0  0  0  0  0  0  0  0  0  0  0  0
    2.4009   -1.3636   -1.6052 C   0  0  0  0  0  0  0  0  0  0  0  0
    2.5463   -0.3165   -2.1986 O   0  0  0  0  0  0  0  0  0  0  0  0
    1.0542   -1.8826   -1.1304 C   0  0  0  0  0  0  0  0  0  0  0  0
    0.2770   -0.7243   -0.5232 C   0  0  0  0  0  0  0  0  0  0  0  0
    0.1568    0.0768   -1.2676 H   0  0  0  0  0  0  0  0  0  0  0  0
    1.0339   -0.1062    0.6368 C   0  0  0  0  0  0  0  0  0  0  0  0
    2.2334   -0.1941    0.7625 O   0  0  0  0  0  0  0  0  0  0  0  0
    0.2307    0.5373    1.4579 O   0  0  0  0  0  0  0  0  0  0  0  0
    0.8112    1.2809    2.5493 C   0  0  0  0  0  0  0  0  0  0  0  0
    1.1963    2.6797    2.1004 C   0  0  0  0  0  0  0  0  0  0  0  0
   -1.3903   -1.2394   -0.0083 S   0  0  0  0  0  0  0  0  0  0  0  0
   -2.2695    0.6936    0.1884 P   0  0  0  0  0  0  0  0  0  0  0  0
   -1.4359    2.1518   -0.8176 S   0  0  0  0  0  0  0  0  0  0  0  0
   -3.7872    0.3948   -0.2307 O   0  0  0  0  0  0  0  0  0  0  0  0
   -4.1388    0.0918   -1.5844 C   0  0  0  0  0  0  0  0  0  0  0  0
   -2.4687    1.0123    1.7214 O   0  0  0  0  0  0  0  0  0  0  0  0
   -3.1584    0.1052    2.6049 C   0  0  0  0  0  0  0  0  0  0  0  0
    4.8744   -0.4049   -0.0942 H   0  0  0  0  0  0  0  0  0  0  0  0
    5.4438   -2.0129    0.3587 H   0  0  0  0  0  0  0  0  0  0  0  0
    6.4305   -0.9939   -0.7059 H   0  0  0  0  0  0  0  0  0  0  0  0
    5.1871   -2.7960   -1.9823 H   0  0  0  0  0  0  0  0  0  0  0  0
    4.7015   -1.1427   -2.4842 H   0  0  0  0  0  0  0  0  0  0  0  0
    1.2143   -2.6788   -0.4048 H   0  0  0  0  0  0  0  0  0  0  0  0
    0.5094   -2.2782   -1.9886 H   0  0  0  0  0  0  0  0  0  0  0  0
    0.0268    1.3086    3.3054 H   0  0  0  0  0  0  0  0  0  0  0  0
    1.6832    0.7291    2.9110 H   0  0  0  0  0  0  0  0  0  0  0  0
    1.9782    2.6314    1.3453 H   0  0  0  0  0  0  0  0  0  0  0  0
    0.3328    3.1840    1.6723 H   0  0  0  0  0  0  0  0  0  0  0  0
    1.5582    3.2454    2.9521 H   0  0  0  0  0  0  0  0  0  0  0  0
   -3.6954    0.8238   -2.2614 H   0  0  0  0  0  0  0  0  0  0  0  0
   -5.2236    0.1469   -1.6250 H   0  0  0  0  0  0  0  0  0  0  0  0
   -3.7947   -0.9100   -1.8412 H   0  0  0  0  0  0  0  0  0  0  0  0
   -2.6739   -0.8711    2.5876 H   0  0  0  0  0  0  0  0  0  0  0  0
   -4.1989    0.0102    2.3013 H   0  0  0  0  0  0  0  0  0  0  0  0
   -3.0846    0.5566    3.5909 H   0  0  0  0  0  0  0  0  0  0  0  0
  1  2  1  0  0  0  0
  2  3  1  0  0  0  0
  3  4  1  0  0  0  0
  4  5  2  0  0  0  0
  4  6  1  0  0  0  0
  6  7  1  0  0  0  0
  7  8  1  0  0  0  0
  7  9  1  0  0  0  0
  9 10  2  0  0  0  0
  9 11  1  0  0  0  0
 11 12  1  0  0  0  0
 12 13  1  0  0  0  0
  7 14  1  0  0  0  0
 14 15  1  0  0  0  0
 15 16  2  0  0  0  0
 15 17  1  0  0  0  0
 17 18  1  0  0  0  0
 15 19  2  0  0  0  0
 19 20  1  0  0  0  0
  1 21  1  0  0  0  0
  1 22  1  0  0  0  0
  1 23  1  0  0  0  0
  2 24  1  0  0  0  0
  2 25  1  0  0  0  0
  6 26  1  0  0  0  0
  6 27  1  0  0  0  0
 12 28  1  0  0  0  0
 12 29  1  0  0  0  0
 13 30  1  0  0  0  0
 13 31  1  0  0  0  0
 13 32  1  0  0  0  0
 18 33  1  0  0  0  0
 18 34  1  0  0  0  0
 18 35  1  0  0  0  0
 20 36  1  0  0  0  0
 20 37  1  0  0  0  0
 20 38  1  0  0  0  0
M  END
