22
CONF1
C 2.8095477825 -0.0000043619 0.0067068821
N 1.3962158440 -0.0000038833 -0.3071201421
C 0.7323752849 1.1832981427 0.2105444665
C -0.7323701848 1.1833560241 -0.2104971272
N -1.3962132127 0.0000293179 0.3071040541
C -0.7323879909 -1.1833226607 -0.2104720523
C 0.7323761686 -1.1833204121 0.2105160257
C -2.8095455383 -0.0000202137 -0.0067859103
H 3.2686096000 -0.8854263639 -0.4291519871
H 3.0018961092 0.0001933876 1.0913967296
H 3.2686662756 0.8852230631 -0.4294899485
H 0.7885170959 1.2226874617 1.3133868069
H 1.2286504686 2.0669332187 -0.1963327647
H -1.2286111448 2.0669960359 0.1964451677
H -0.7885193647 1.2228318791 -1.3133420392
H -1.2286555018 -2.0669356217 0.1965086098
H -0.7885744471 -1.2228317614 -1.3133270517
H 0.7885961925 -1.2227738453 1.3133606255
H 1.2286179448 -2.0669558923 -0.1964279421
H -3.2686552995 0.8852073164 0.4292617703
H -3.2686507151 -0.8853409180 0.4292340926
H -3.0018704188 -0.0000007649 -1.0914448883
22
CONF2
C 2.6587170218 0.0000707918 0.3928585343
N 1.3481043711 0.0000252897 -0.2201379383
C 0.5903830799 1.1907403030 0.1277053210
C -0.7525877027 1.1825861075 -0.6119010290
N -1.5529217135 0.0000120030 -0.3496739279
C -0.7526952101 -1.1826865612 -0.6117335168
C 0.5905218459 -1.1908447456 0.1274937084
C -2.2004566502 0.0001165843 0.9469146100
H 3.2016254562 -0.8858003470 0.0683204643
H 2.6123516180 0.0004986084 1.4947696082
H 3.2018329463 0.8855369103 0.0676942513
H 0.4225032598 1.2558282423 1.2200181386
H 1.1660395398 2.0674085244 -0.1767618072
H -1.3301719378 2.0684661340 -0.3431070414
H -0.5533757453 1.2036914303 -1.6865948377
H -1.3302265206 -2.0684351112 -0.3424009880
H -0.5538734110 -1.2042509019 -1.6865010082
H 0.4229592444 -1.2563488947 1.2198277506
H 1.1661798682 -2.0673405447 -0.1774578104
H -2.8324394661 -0.8839791143 1.0166813958
H -2.8321755565 0.8843994840 1.0166774571
H -1.5103574342 0.0000161130 1.8022837955
