 xtb: 6.7.1 (edcfbbe)
          04092505213D

 41 40  0     0  0            999 V2000
    1.3985    2.8260    1.3258 C   0  0  0  0  0  0  0  0  0  0  0  0
    2.1581    2.0233    0.2893 C   0  0  0  0  0  0  0  0  0  0  0  0
    1.4960    0.7768   -0.0130 O   0  0  0  0  0  0  0  0  0  0  0  0
    1.7074   -0.5239    0.8653 P   0  0  0  0  0  0  0  0  0  0  0  0
    1.2787   -0.5046    2.7823 S   0  0  0  0  0  0  0  0  0  0  0  0
    3.2773   -0.7500    0.6252 O   0  0  0  0  0  0  0  0  0  0  0  0
    4.0504   -1.6419    1.4379 C   0  0  0  0  0  0  0  0  0  0  0  0
    3.6978   -3.0916    1.1729 C   0  0  0  0  0  0  0  0  0  0  0  0
    0.7501   -1.9927   -0.3206 S   0  0  0  0  0  0  0  0  0  0  0  0
    0.2456   -1.1317   -1.8464 C   0  0  0  0  0  0  0  0  0  0  0  0
   -1.5550   -0.9523   -2.0253 S   0  0  0  0  0  0  0  0  0  0  0  0
   -1.8917    0.6810   -0.7148 P   0  0  0  0  0  0  0  0  0  0  0  0
   -3.7349    1.3306   -0.6104 S   0  0  0  0  0  0  0  0  0  0  0  0
   -0.8162    1.7751   -1.1309 O   0  0  0  0  0  0  0  0  0  0  0  0
   -1.1381    2.8021   -2.0881 C   0  0  0  0  0  0  0  0  0  0  0  0
   -1.1991    2.2669   -3.5053 C   0  0  0  0  0  0  0  0  0  0  0  0
   -1.2267    0.2401    0.6684 O   0  0  0  0  0  0  0  0  0  0  0  0
   -2.0618   -0.3024    1.7105 C   0  0  0  0  0  0  0  0  0  0  0  0
   -2.5762   -1.6865    1.3695 C   0  0  0  0  0  0  0  0  0  0  0  0
    1.8625    3.8011    1.4360 H   0  0  0  0  0  0  0  0  0  0  0  0
    0.3644    2.9500    1.0133 H   0  0  0  0  0  0  0  0  0  0  0  0
    1.4084    2.3161    2.2868 H   0  0  0  0  0  0  0  0  0  0  0  0
    3.1780    1.8119    0.6200 H   0  0  0  0  0  0  0  0  0  0  0  0
    2.1839    2.5436   -0.6703 H   0  0  0  0  0  0  0  0  0  0  0  0
    5.0843   -1.4213    1.1687 H   0  0  0  0  0  0  0  0  0  0  0  0
    3.8774   -1.3909    2.4899 H   0  0  0  0  0  0  0  0  0  0  0  0
    2.6645   -3.2793    1.4663 H   0  0  0  0  0  0  0  0  0  0  0  0
    3.8072   -3.3225    0.1166 H   0  0  0  0  0  0  0  0  0  0  0  0
    4.3516   -3.7340    1.7537 H   0  0  0  0  0  0  0  0  0  0  0  0
    0.5530   -1.7639   -2.6750 H   0  0  0  0  0  0  0  0  0  0  0  0
    0.7188   -0.1560   -1.8785 H   0  0  0  0  0  0  0  0  0  0  0  0
   -2.0962    3.2510   -1.8067 H   0  0  0  0  0  0  0  0  0  0  0  0
   -0.3391    3.5356   -1.9680 H   0  0  0  0  0  0  0  0  0  0  0  0
   -1.3626    3.0935   -4.1895 H   0  0  0  0  0  0  0  0  0  0  0  0
   -0.2713    1.7646   -3.7671 H   0  0  0  0  0  0  0  0  0  0  0  0
   -2.0231    1.5613   -3.6029 H   0  0  0  0  0  0  0  0  0  0  0  0
   -1.4148   -0.3196    2.5895 H   0  0  0  0  0  0  0  0  0  0  0  0
   -2.8947    0.3876    1.8778 H   0  0  0  0  0  0  0  0  0  0  0  0
   -3.2245   -1.6388    0.4942 H   0  0  0  0  0  0  0  0  0  0  0  0
   -1.7491   -2.3626    1.1633 H   0  0  0  0  0  0  0  0  0  0  0  0
   -3.1463   -2.0683    2.2103 H   0  0  0  0  0  0  0  0  0  0  0  0
  1  2  1  0  0  0  0
  2  3  1  0  0  0  0
  3  4  1  0  0  0  0
  4  5  2  0  0  0  0
  4  6  1  0  0  0  0
  6  7  1  0  0  0  0
  7  8  1  0  0  0  0
  4  9  1  0  0  0  0
  9 10  1  0  0  0  0
 10 11  1  0  0  0  0
 11 12  1  0  0  0  0
 12 13  2  0  0  0  0
 12 14  2  0  0  0  0
 14 15  1  0  0  0  0
 15 16  1  0  0  0  0
 12 17  1  0  0  0  0
 17 18  1  0  0  0  0
 18 19  1  0  0  0  0
  1 20  1  0  0  0  0
  1 21  1  0  0  0  0
  1 22  1  0  0  0  0
  2 23  1  0  0  0  0
  2 24  1  0  0  0  0
  7 25  1  0  0  0  0
  7 26  1  0  0  0  0
  8 27  1  0  0  0  0
  8 28  1  0  0  0  0
  8 29  1  0  0  0  0
 10 30  1  0  0  0  0
 10 31  1  0  0  0  0
 15 32  1  0  0  0  0
 15 33  1  0  0  0  0
 16 34  1  0  0  0  0
 16 35  1  0  0  0  0
 16 36  1  0  0  0  0
 18 37  1  0  0  0  0
 18 38  1  0  0  0  0
 19 39  1  0  0  0  0
 19 40  1  0  0  0  0
 19 41  1  0  0  0  0
M  END
