 xtb: 6.7.1 (edcfbbe)
          04092505213D

 41 40  0     0  0            999 V2000
    4.4912    1.8631    0.1604 C   0  0  0  0  0  0  0  0  0  0  0  0
    4.2197    0.7186   -0.7942 C   0  0  0  0  0  0  0  0  0  0  0  0
    3.3361   -0.2757   -0.2495 O   0  0  0  0  0  0  0  0  0  0  0  0
    1.9293    0.0091    0.4531 P   0  0  0  0  0  0  0  0  0  0  0  0
    1.9866    0.6888    2.2894 S   0  0  0  0  0  0  0  0  0  0  0  0
    1.2893   -1.4289    0.2767 O   0  0  0  0  0  0  0  0  0  0  0  0
    1.1275   -2.3407    1.3729 C   0  0  0  0  0  0  0  0  0  0  0  0
    2.4263   -3.0626    1.6630 C   0  0  0  0  0  0  0  0  0  0  0  0
    0.8956    1.1867   -0.9794 S   0  0  0  0  0  0  0  0  0  0  0  0
    0.4499   -0.0937   -2.1684 C   0  0  0  0  0  0  0  0  0  0  0  0
   -0.9189   -1.2226   -1.6699 S   0  0  0  0  0  0  0  0  0  0  0  0
   -2.0927   -0.0913   -0.3590 P   0  0  0  0  0  0  0  0  0  0  0  0
   -3.8537   -0.8712   -0.0010 S   0  0  0  0  0  0  0  0  0  0  0  0
   -2.1531    1.4143   -0.8847 O   0  0  0  0  0  0  0  0  0  0  0  0
   -3.1902    1.8728   -1.7689 C   0  0  0  0  0  0  0  0  0  0  0  0
   -2.8930    1.5076   -3.2095 C   0  0  0  0  0  0  0  0  0  0  0  0
   -1.1204    0.0552    0.8971 O   0  0  0  0  0  0  0  0  0  0  0  0
   -1.6021    0.7179    2.0923 C   0  0  0  0  0  0  0  0  0  0  0  0
   -2.0309   -0.2940    3.1344 C   0  0  0  0  0  0  0  0  0  0  0  0
    3.5745    2.4228    0.3455 H   0  0  0  0  0  0  0  0  0  0  0  0
    4.8621    1.4879    1.1115 H   0  0  0  0  0  0  0  0  0  0  0  0
    5.2297    2.5283   -0.2755 H   0  0  0  0  0  0  0  0  0  0  0  0
    5.1307    0.1594   -1.0152 H   0  0  0  0  0  0  0  0  0  0  0  0
    3.7807    1.0953   -1.7228 H   0  0  0  0  0  0  0  0  0  0  0  0
    0.7900   -1.7814    2.2518 H   0  0  0  0  0  0  0  0  0  0  0  0
    0.3400   -3.0229    1.0465 H   0  0  0  0  0  0  0  0  0  0  0  0
    2.2690   -3.7847    2.4578 H   0  0  0  0  0  0  0  0  0  0  0  0
    2.7787   -3.5734    0.7711 H   0  0  0  0  0  0  0  0  0  0  0  0
    3.1796   -2.3414    1.9781 H   0  0  0  0  0  0  0  0  0  0  0  0
    1.2986   -0.7485   -2.3537 H   0  0  0  0  0  0  0  0  0  0  0  0
    0.1483    0.4289   -3.0727 H   0  0  0  0  0  0  0  0  0  0  0  0
   -4.1416    1.4378   -1.4441 H   0  0  0  0  0  0  0  0  0  0  0  0
   -3.2064    2.9536   -1.6227 H   0  0  0  0  0  0  0  0  0  0  0  0
   -1.9338    1.9208   -3.5100 H   0  0  0  0  0  0  0  0  0  0  0  0
   -2.8732    0.4246   -3.3241 H   0  0  0  0  0  0  0  0  0  0  0  0
   -3.6716    1.9134   -3.8473 H   0  0  0  0  0  0  0  0  0  0  0  0
   -0.7570    1.3148    2.4431 H   0  0  0  0  0  0  0  0  0  0  0  0
   -2.4292    1.3791    1.8213 H   0  0  0  0  0  0  0  0  0  0  0  0
   -2.8409   -0.9112    2.7513 H   0  0  0  0  0  0  0  0  0  0  0  0
   -1.1948   -0.9339    3.4040 H   0  0  0  0  0  0  0  0  0  0  0  0
   -2.3723    0.2349    4.0185 H   0  0  0  0  0  0  0  0  0  0  0  0
  1  2  1  0  0  0  0
  2  3  1  0  0  0  0
  3  4  1  0  0  0  0
  4  5  2  0  0  0  0
  4  6  2  0  0  0  0
  6  7  1  0  0  0  0
  7  8  1  0  0  0  0
  4  9  1  0  0  0  0
  9 10  1  0  0  0  0
 10 11  1  0  0  0  0
 11 12  1  0  0  0  0
 12 13  2  0  0  0  0
 12 14  2  0  0  0  0
 14 15  1  0  0  0  0
 15 16  1  0  0  0  0
 12 17  1  0  0  0  0
 17 18  1  0  0  0  0
 18 19  1  0  0  0  0
  1 20  1  0  0  0  0
  1 21  1  0  0  0  0
  1 22  1  0  0  0  0
  2 23  1  0  0  0  0
  2 24  1  0  0  0  0
  7 25  1  0  0  0  0
  7 26  1  0  0  0  0
  8 27  1  0  0  0  0
  8 28  1  0  0  0  0
  8 29  1  0  0  0  0
 10 30  1  0  0  0  0
 10 31  1  0  0  0  0
 15 32  1  0  0  0  0
 15 33  1  0  0  0  0
 16 34  1  0  0  0  0
 16 35  1  0  0  0  0
 16 36  1  0  0  0  0
 18 37  1  0  0  0  0
 18 38  1  0  0  0  0
 19 39  1  0  0  0  0
 19 40  1  0  0  0  0
 19 41  1  0  0  0  0
M  END
