 xtb: 6.7.1 (edcfbbe)
          04092505213D

 41 40  0     0  0            999 V2000
    3.2285   -1.0174   -3.1950 C   0  0  0  0  0  0  0  0  0  0  0  0
    1.9087   -0.7918   -2.4861 C   0  0  0  0  0  0  0  0  0  0  0  0
    2.0292    0.2473   -1.4844 O   0  0  0  0  0  0  0  0  0  0  0  0
    2.2660   -0.0291    0.0456 P   0  0  0  0  0  0  0  0  0  0  0  0
    2.4192    1.6454    1.0413 S   0  0  0  0  0  0  0  0  0  0  0  0
    3.5544   -0.9647   -0.0131 O   0  0  0  0  0  0  0  0  0  0  0  0
    4.0406   -1.7888    1.0611 C   0  0  0  0  0  0  0  0  0  0  0  0
    4.3771   -0.9963    2.3071 C   0  0  0  0  0  0  0  0  0  0  0  0
    0.7544   -1.4065    0.6980 S   0  0  0  0  0  0  0  0  0  0  0  0
    0.0118   -0.4298    2.0375 C   0  0  0  0  0  0  0  0  0  0  0  0
   -1.8002   -0.4345    2.0024 S   0  0  0  0  0  0  0  0  0  0  0  0
   -2.1129    0.2635    0.0433 P   0  0  0  0  0  0  0  0  0  0  0  0
   -0.8483    1.5874   -0.6855 S   0  0  0  0  0  0  0  0  0  0  0  0
   -3.6244    0.7481    0.0822 O   0  0  0  0  0  0  0  0  0  0  0  0
   -4.0008    2.0141    0.6592 C   0  0  0  0  0  0  0  0  0  0  0  0
   -5.4058    2.3376    0.1928 C   0  0  0  0  0  0  0  0  0  0  0  0
   -2.2231   -1.1025   -0.7422 O   0  0  0  0  0  0  0  0  0  0  0  0
   -2.0857   -1.1850   -2.1752 C   0  0  0  0  0  0  0  0  0  0  0  0
   -3.2886   -0.6013   -2.8852 C   0  0  0  0  0  0  0  0  0  0  0  0
    3.5789   -0.0845   -3.6280 H   0  0  0  0  0  0  0  0  0  0  0  0
    3.9764   -1.3811   -2.4962 H   0  0  0  0  0  0  0  0  0  0  0  0
    3.0848   -1.7490   -3.9840 H   0  0  0  0  0  0  0  0  0  0  0  0
    1.5493   -1.7077   -2.0074 H   0  0  0  0  0  0  0  0  0  0  0  0
    1.1520   -0.4133   -3.1771 H   0  0  0  0  0  0  0  0  0  0  0  0
    3.2859   -2.5506    1.2769 H   0  0  0  0  0  0  0  0  0  0  0  0
    4.9307   -2.2592    0.6393 H   0  0  0  0  0  0  0  0  0  0  0  0
    5.0768   -0.1984    2.0705 H   0  0  0  0  0  0  0  0  0  0  0  0
    3.4783   -0.5457    2.7247 H   0  0  0  0  0  0  0  0  0  0  0  0
    4.8203   -1.6574    3.0448 H   0  0  0  0  0  0  0  0  0  0  0  0
    0.3888    0.5952    1.9615 H   0  0  0  0  0  0  0  0  0  0  0  0
    0.2834   -0.8776    2.9905 H   0  0  0  0  0  0  0  0  0  0  0  0
   -3.9531    1.9222    1.7478 H   0  0  0  0  0  0  0  0  0  0  0  0
   -3.2817    2.7737    0.3334 H   0  0  0  0  0  0  0  0  0  0  0  0
   -6.0839    1.5429    0.4898 H   0  0  0  0  0  0  0  0  0  0  0  0
   -5.7243    3.2713    0.6444 H   0  0  0  0  0  0  0  0  0  0  0  0
   -5.4298    2.4361   -0.8887 H   0  0  0  0  0  0  0  0  0  0  0  0
   -1.1721   -0.6552   -2.4648 H   0  0  0  0  0  0  0  0  0  0  0  0
   -1.9749   -2.2531   -2.3661 H   0  0  0  0  0  0  0  0  0  0  0  0
   -3.3418    0.4703   -2.6973 H   0  0  0  0  0  0  0  0  0  0  0  0
   -3.1949   -0.7702   -3.9534 H   0  0  0  0  0  0  0  0  0  0  0  0
   -4.2001   -1.0671   -2.5210 H   0  0  0  0  0  0  0  0  0  0  0  0
  1  2  1  0  0  0  0
  2  3  1  0  0  0  0
  3  4  2  0  0  0  0
  4  5  2  0  0  0  0
  4  6  2  0  0  0  0
  6  7  1  0  0  0  0
  7  8  1  0  0  0  0
  4  9  1  0  0  0  0
  9 10  1  0  0  0  0
 10 11  1  0  0  0  0
 11 12  1  0  0  0  0
 12 13  2  0  0  0  0
 12 14  2  0  0  0  0
 14 15  1  0  0  0  0
 15 16  1  0  0  0  0
 12 17  2  0  0  0  0
 17 18  1  0  0  0  0
 18 19  1  0  0  0  0
  1 20  1  0  0  0  0
  1 21  1  0  0  0  0
  1 22  1  0  0  0  0
  2 23  1  0  0  0  0
  2 24  1  0  0  0  0
  7 25  1  0  0  0  0
  7 26  1  0  0  0  0
  8 27  1  0  0  0  0
  8 28  1  0  0  0  0
  8 29  1  0  0  0  0
 10 30  1  0  0  0  0
 10 31  1  0  0  0  0
 15 32  1  0  0  0  0
 15 33  1  0  0  0  0
 16 34  1  0  0  0  0
 16 35  1  0  0  0  0
 16 36  1  0  0  0  0
 18 37  1  0  0  0  0
 18 38  1  0  0  0  0
 19 39  1  0  0  0  0
 19 40  1  0  0  0  0
 19 41  1  0  0  0  0
M  END
