 xtb: 6.7.1 (edcfbbe)
          04092505213D

 41 40  0     0  0            999 V2000
    2.4347    0.3449   -2.6385 C   0  0  0  0  0  0  0  0  0  0  0  0
    1.6175    1.3093   -1.8064 C   0  0  0  0  0  0  0  0  0  0  0  0
    1.0885    0.6789   -0.6220 O   0  0  0  0  0  0  0  0  0  0  0  0
    2.0441    0.2995    0.5963 P   0  0  0  0  0  0  0  0  0  0  0  0
    3.5387    1.5289    0.8904 S   0  0  0  0  0  0  0  0  0  0  0  0
    2.4698   -1.1951    0.2424 O   0  0  0  0  0  0  0  0  0  0  0  0
    3.6221   -1.8209    0.8327 C   0  0  0  0  0  0  0  0  0  0  0  0
    3.3249   -2.3486    2.2223 C   0  0  0  0  0  0  0  0  0  0  0  0
    0.6933    0.2068    2.1989 S   0  0  0  0  0  0  0  0  0  0  0  0
   -0.3505   -1.2627    1.8248 C   0  0  0  0  0  0  0  0  0  0  0  0
   -0.5262   -1.6665    0.0753 S   0  0  0  0  0  0  0  0  0  0  0  0
   -1.7771   -0.0913   -0.5922 P   0  0  0  0  0  0  0  0  0  0  0  0
   -1.6988    0.1684   -2.5329 S   0  0  0  0  0  0  0  0  0  0  0  0
   -1.4135    1.1195    0.3597 O   0  0  0  0  0  0  0  0  0  0  0  0
   -2.3745    2.0982    0.8163 C   0  0  0  0  0  0  0  0  0  0  0  0
   -2.9247    2.9220   -0.3283 C   0  0  0  0  0  0  0  0  0  0  0  0
   -3.2174   -0.4850   -0.0156 O   0  0  0  0  0  0  0  0  0  0  0  0
   -4.0329   -1.4887   -0.6481 C   0  0  0  0  0  0  0  0  0  0  0  0
   -5.0690   -0.8468   -1.5503 C   0  0  0  0  0  0  0  0  0  0  0  0
    1.8462   -0.5417   -2.8636 H   0  0  0  0  0  0  0  0  0  0  0  0
    2.7219    0.8302   -3.5658 H   0  0  0  0  0  0  0  0  0  0  0  0
    3.3317    0.0511   -2.0955 H   0  0  0  0  0  0  0  0  0  0  0  0
    0.7294    1.6466   -2.3443 H   0  0  0  0  0  0  0  0  0  0  0  0
    2.2188    2.1708   -1.4984 H   0  0  0  0  0  0  0  0  0  0  0  0
    3.8694   -2.6275    0.1411 H   0  0  0  0  0  0  0  0  0  0  0  0
    4.4376   -1.0901    0.8612 H   0  0  0  0  0  0  0  0  0  0  0  0
    2.5031   -3.0587    2.1870 H   0  0  0  0  0  0  0  0  0  0  0  0
    4.2085   -2.8458    2.6096 H   0  0  0  0  0  0  0  0  0  0  0  0
    3.0643   -1.5263    2.8876 H   0  0  0  0  0  0  0  0  0  0  0  0
   -1.3216   -1.0472    2.2647 H   0  0  0  0  0  0  0  0  0  0  0  0
    0.1027   -2.1361    2.2869 H   0  0  0  0  0  0  0  0  0  0  0  0
   -3.1757    1.5801    1.3464 H   0  0  0  0  0  0  0  0  0  0  0  0
   -1.7983    2.7078    1.5150 H   0  0  0  0  0  0  0  0  0  0  0  0
   -3.4577    2.2786   -1.0276 H   0  0  0  0  0  0  0  0  0  0  0  0
   -3.6079    3.6705    0.0604 H   0  0  0  0  0  0  0  0  0  0  0  0
   -2.1165    3.4154   -0.8634 H   0  0  0  0  0  0  0  0  0  0  0  0
   -3.3919   -2.1705   -1.2147 H   0  0  0  0  0  0  0  0  0  0  0  0
   -4.5034   -2.0289    0.1754 H   0  0  0  0  0  0  0  0  0  0  0  0
   -5.7115   -1.6185   -1.9615 H   0  0  0  0  0  0  0  0  0  0  0  0
   -5.6714   -0.1400   -0.9866 H   0  0  0  0  0  0  0  0  0  0  0  0
   -4.5794   -0.3226   -2.3685 H   0  0  0  0  0  0  0  0  0  0  0  0
  1  2  1  0  0  0  0
  2  3  1  0  0  0  0
  3  4  1  0  0  0  0
  4  5  2  0  0  0  0
  4  6  2  0  0  0  0
  6  7  1  0  0  0  0
  7  8  1  0  0  0  0
  4  9  1  0  0  0  0
  9 10  1  0  0  0  0
 10 11  1  0  0  0  0
 11 12  1  0  0  0  0
 12 13  2  0  0  0  0
 12 14  2  0  0  0  0
 14 15  1  0  0  0  0
 15 16  1  0  0  0  0
 12 17  1  0  0  0  0
 17 18  1  0  0  0  0
 18 19  1  0  0  0  0
  1 20  1  0  0  0  0
  1 21  1  0  0  0  0
  1 22  1  0  0  0  0
  2 23  1  0  0  0  0
  2 24  1  0  0  0  0
  7 25  1  0  0  0  0
  7 26  1  0  0  0  0
  8 27  1  0  0  0  0
  8 28  1  0  0  0  0
  8 29  1  0  0  0  0
 10 30  1  0  0  0  0
 10 31  1  0  0  0  0
 15 32  1  0  0  0  0
 15 33  1  0  0  0  0
 16 34  1  0  0  0  0
 16 35  1  0  0  0  0
 16 36  1  0  0  0  0
 18 37  1  0  0  0  0
 18 38  1  0  0  0  0
 19 39  1  0  0  0  0
 19 40  1  0  0  0  0
 19 41  1  0  0  0  0
M  END
