 xtb: 6.7.1 (edcfbbe)
          04092505203D

 41 40  0     0  0            999 V2000
    5.5310   -0.0649    0.6101 C   0  0  0  0  0  0  0  0  0  0  0  0
    4.4465   -1.0778    0.3062 C   0  0  0  0  0  0  0  0  0  0  0  0
    3.7033   -0.7038   -0.8811 O   0  0  0  0  0  0  0  0  0  0  0  0
    2.3539    0.1079   -0.8600 P   0  0  0  0  0  0  0  0  0  0  0  0
    1.6747    0.3652   -2.6740 S   0  0  0  0  0  0  0  0  0  0  0  0
    2.7636    1.4205   -0.0619 O   0  0  0  0  0  0  0  0  0  0  0  0
    1.9052    2.5662    0.0889 C   0  0  0  0  0  0  0  0  0  0  0  0
    1.2541    2.5781    1.4579 C   0  0  0  0  0  0  0  0  0  0  0  0
    1.1046   -0.9800    0.4870 S   0  0  0  0  0  0  0  0  0  0  0  0
   -0.0101   -1.7568   -0.7286 C   0  0  0  0  0  0  0  0  0  0  0  0
   -1.6641   -1.9953   -0.0570 S   0  0  0  0  0  0  0  0  0  0  0  0
   -2.1168    0.0539    0.3478 P   0  0  0  0  0  0  0  0  0  0  0  0
   -1.4627    1.3836   -0.9294 S   0  0  0  0  0  0  0  0  0  0  0  0
   -1.5604    0.3167    1.7985 O   0  0  0  0  0  0  0  0  0  0  0  0
   -1.8852   -0.4946    2.9556 C   0  0  0  0  0  0  0  0  0  0  0  0
   -3.0224    0.1230    3.7426 C   0  0  0  0  0  0  0  0  0  0  0  0
   -3.6905    0.0351    0.5751 O   0  0  0  0  0  0  0  0  0  0  0  0
   -4.6358    0.1984   -0.4963 C   0  0  0  0  0  0  0  0  0  0  0  0
   -4.5965   -0.9499   -1.4836 C   0  0  0  0  0  0  0  0  0  0  0  0
    5.0923    0.9009    0.8450 H   0  0  0  0  0  0  0  0  0  0  0  0
    6.1120   -0.4121    1.4588 H   0  0  0  0  0  0  0  0  0  0  0  0
    6.1845    0.0486   -0.2505 H   0  0  0  0  0  0  0  0  0  0  0  0
    3.7485   -1.1778    1.1425 H   0  0  0  0  0  0  0  0  0  0  0  0
    4.8712   -2.0527    0.0602 H   0  0  0  0  0  0  0  0  0  0  0  0
    2.5650    3.4261   -0.0420 H   0  0  0  0  0  0  0  0  0  0  0  0
    1.1541    2.5653   -0.7077 H   0  0  0  0  0  0  0  0  0  0  0  0
    0.5482    1.7559    1.5547 H   0  0  0  0  0  0  0  0  0  0  0  0
    2.0102    2.4913    2.2329 H   0  0  0  0  0  0  0  0  0  0  0  0
    0.7142    3.5116    1.5805 H   0  0  0  0  0  0  0  0  0  0  0  0
    0.3626   -2.7460   -0.9831 H   0  0  0  0  0  0  0  0  0  0  0  0
   -0.0517   -1.1104   -1.6105 H   0  0  0  0  0  0  0  0  0  0  0  0
   -2.1357   -1.5049    2.6210 H   0  0  0  0  0  0  0  0  0  0  0  0
   -0.9611   -0.5179    3.5361 H   0  0  0  0  0  0  0  0  0  0  0  0
   -3.9315    0.1326    3.1476 H   0  0  0  0  0  0  0  0  0  0  0  0
   -3.1885   -0.4624    4.6415 H   0  0  0  0  0  0  0  0  0  0  0  0
   -2.7732    1.1435    4.0194 H   0  0  0  0  0  0  0  0  0  0  0  0
   -5.5986    0.2565    0.0135 H   0  0  0  0  0  0  0  0  0  0  0  0
   -4.4245    1.1464   -1.0005 H   0  0  0  0  0  0  0  0  0  0  0  0
   -3.6585   -0.9356   -2.0371 H   0  0  0  0  0  0  0  0  0  0  0  0
   -4.6832   -1.9008   -0.9637 H   0  0  0  0  0  0  0  0  0  0  0  0
   -5.4171   -0.8458   -2.1863 H   0  0  0  0  0  0  0  0  0  0  0  0
  1  2  1  0  0  0  0
  2  3  1  0  0  0  0
  3  4  2  0  0  0  0
  4  5  2  0  0  0  0
  4  6  2  0  0  0  0
  6  7  1  0  0  0  0
  7  8  1  0  0  0  0
  4  9  1  0  0  0  0
  9 10  1  0  0  0  0
 10 11  1  0  0  0  0
 11 12  1  0  0  0  0
 12 13  2  0  0  0  0
 12 14  2  0  0  0  0
 14 15  1  0  0  0  0
 15 16  1  0  0  0  0
 12 17  2  0  0  0  0
 17 18  1  0  0  0  0
 18 19  1  0  0  0  0
  1 20  1  0  0  0  0
  1 21  1  0  0  0  0
  1 22  1  0  0  0  0
  2 23  1  0  0  0  0
  2 24  1  0  0  0  0
  7 25  1  0  0  0  0
  7 26  1  0  0  0  0
  8 27  1  0  0  0  0
  8 28  1  0  0  0  0
  8 29  1  0  0  0  0
 10 30  1  0  0  0  0
 10 31  1  0  0  0  0
 15 32  1  0  0  0  0
 15 33  1  0  0  0  0
 16 34  1  0  0  0  0
 16 35  1  0  0  0  0
 16 36  1  0  0  0  0
 18 37  1  0  0  0  0
 18 38  1  0  0  0  0
 19 39  1  0  0  0  0
 19 40  1  0  0  0  0
 19 41  1  0  0  0  0
M  END
