  22
 
 C         -1.4966560831       -0.1994659127       -1.2031388778
 C         -0.8040460712       -0.2161029663        0.0005418670
 C         -1.4968088943       -0.1940994824        1.2040450597
 C         -2.8814050718       -0.1546784394        1.2000110724
 C         -3.5886239208       -0.1371931635        0.0001823536
 C         -2.8812456355       -0.1600316451       -1.1994654032
 Cl        -3.7420845234       -0.1374052068       -2.6944504414
 Cl        -5.3146074855       -0.0881851601       -0.0000443350
 Cl        -3.7424510945       -0.1256010735        2.6947556528
 C          0.6792140612       -0.2497167514        0.0006195250
 C          1.3584044619       -1.4595792904        0.0028036367
 C          2.7441254213       -1.4865869165        0.0027964304
 C          3.4728596242       -0.2986084860        0.0004505991
 C          2.7966752975        0.9201342023       -0.0017924573
 C          1.4038383441        0.9410309509       -0.0016436198
 Cl         0.5709042750        2.4490243981       -0.0042606218
 Cl         3.6859412727        2.3930403378       -0.0045960385
 Cl         5.1937726615       -0.3261766141        0.0002066747
 Cl         3.5755604472       -2.9928518168        0.0054132740
 H         -0.9656373028       -0.2150309442       -2.1401429656
 H         -0.9659259937       -0.2055842141        2.1411872689
 H          0.8048419171       -2.3838493025        0.0045241211
          22
        -59.11236552
 C         -1.5058433950        0.8356483068       -0.7337971649
 C         -0.8040446934       -0.1748527586       -0.0842638133
 C         -1.5005376265       -1.1918969940        0.5617490422
 C         -2.8847257867       -1.1834888368        0.5748357921
 C         -3.5964948293       -0.1699221031       -0.0630855695
 C         -2.8899141685        0.8339465767       -0.7216709465
 Cl        -3.7534757836        2.0908239435       -1.5302423493
 Cl        -5.3218991266       -0.1589479964       -0.0404300176
 Cl        -3.7422847020       -2.4382987960        1.3914420676
 C          0.6714788728       -0.1919902325       -0.0869299274
 C          1.3412840251       -1.3434266995       -0.4887715143
 C          2.7245540535       -1.3919435287       -0.5076291937
 C          3.4731937192       -0.2844376220       -0.1135033337
 C          2.8131566620        0.8686216611        0.3060049642
 C          1.4202831562        0.9158313673        0.3180282253
 Cl         0.6484080285        2.3424151434        0.8980643455
 Cl         3.7292668362        2.2341960737        0.8149183874
 Cl         5.1928689423       -0.3340206227       -0.1342781938
 Cl         3.5305223055       -2.8237011941       -1.0190688226
 H         -0.9844983597        1.6147195669       -1.2639022115
 H         -0.9700894298       -1.9783435315        1.0720950920
 H          0.7757239939       -2.2035843617       -0.8069850337
