 xtb: 6.7.1 (edcfbbe)
          04092507313D

 38 37  0     0  0            999 V2000
    3.8481   -3.7866   -0.0501 C   0  0  0  0  0  0  0  0  0  0  0  0
    4.0087   -2.8862   -1.2643 C   0  0  0  0  0  0  0  0  0  0  0  0
    2.7294   -2.3944   -1.7155 O   0  0  0  0  0  0  0  0  0  0  0  0
    2.2412   -1.3060   -1.1648 C   0  0  0  0  0  0  0  0  0  0  0  0
    2.8028   -0.6484   -0.3117 O   0  0  0  0  0  0  0  0  0  0  0  0
    0.8698   -0.9709   -1.7081 C   0  0  0  0  0  0  0  0  0  0  0  0
    0.5233    0.4882   -1.4263 C   0  0  0  0  0  0  0  0  0  0  0  0
    0.9869    1.1692   -2.1405 H   0  0  0  0  0  0  0  0  0  0  0  0
    0.8989    0.8998   -0.0171 C   0  0  0  0  0  0  0  0  0  0  0  0
    0.3954    0.3544    0.9496 O   0  0  0  0  0  0  0  0  0  0  0  0
    1.6978    1.9284    0.0132 O   0  0  0  0  0  0  0  0  0  0  0  0
    2.0913    2.4613    1.2958 C   0  0  0  0  0  0  0  0  0  0  0  0
    1.1283    3.5489    1.7427 C   0  0  0  0  0  0  0  0  0  0  0  0
   -1.2750    0.7587   -1.5475 S   0  0  0  0  0  0  0  0  0  0  0  0
   -2.0530    0.1490    0.3484 P   0  0  0  0  0  0  0  0  0  0  0  0
   -2.1253    1.3746    1.8864 S   0  0  0  0  0  0  0  0  0  0  0  0
   -3.5444   -0.1516   -0.1646 O   0  0  0  0  0  0  0  0  0  0  0  0
   -4.4472    0.8978   -0.5190 C   0  0  0  0  0  0  0  0  0  0  0  0
   -1.6570   -1.3762    0.5683 O   0  0  0  0  0  0  0  0  0  0  0  0
   -1.1361   -1.8889    1.7972 C   0  0  0  0  0  0  0  0  0  0  0  0
    3.1636   -4.6000   -0.2740 H   0  0  0  0  0  0  0  0  0  0  0  0
    4.8149   -4.1970    0.2218 H   0  0  0  0  0  0  0  0  0  0  0  0
    3.4595   -3.2165    0.7913 H   0  0  0  0  0  0  0  0  0  0  0  0
    4.4016   -3.4366   -2.1188 H   0  0  0  0  0  0  0  0  0  0  0  0
    4.6483   -2.0304   -1.0313 H   0  0  0  0  0  0  0  0  0  0  0  0
    0.1581   -1.6290   -1.1994 H   0  0  0  0  0  0  0  0  0  0  0  0
    0.8205   -1.1876   -2.7742 H   0  0  0  0  0  0  0  0  0  0  0  0
    2.1222    1.6406    2.0170 H   0  0  0  0  0  0  0  0  0  0  0  0
    3.0927    2.8569    1.1262 H   0  0  0  0  0  0  0  0  0  0  0  0
    0.1371    3.1328    1.9155 H   0  0  0  0  0  0  0  0  0  0  0  0
    1.4877    3.9850    2.6687 H   0  0  0  0  0  0  0  0  0  0  0  0
    1.0584    4.3226    0.9833 H   0  0  0  0  0  0  0  0  0  0  0  0
   -4.1710    1.3179   -1.4863 H   0  0  0  0  0  0  0  0  0  0  0  0
   -4.4327    1.6786    0.2443 H   0  0  0  0  0  0  0  0  0  0  0  0
   -5.4296    0.4350   -0.5687 H   0  0  0  0  0  0  0  0  0  0  0  0
   -0.0575   -2.0134    1.7046 H   0  0  0  0  0  0  0  0  0  0  0  0
   -1.6287   -2.8441    1.9627 H   0  0  0  0  0  0  0  0  0  0  0  0
   -1.3450   -1.2018    2.6187 H   0  0  0  0  0  0  0  0  0  0  0  0
  1  2  1  0  0  0  0
  2  3  1  0  0  0  0
  3  4  4  0  0  0  0
  4  5  2  0  0  0  0
  4  6  1  0  0  0  0
  6  7  1  0  0  0  0
  7  8  1  0  0  0  0
  7  9  1  0  0  0  0
  9 10  2  0  0  0  0
  9 11  4  0  0  0  0
 11 12  1  0  0  0  0
 12 13  1  0  0  0  0
  7 14  1  0  0  0  0
 14 15  1  0  0  0  0
 15 16  2  0  0  0  0
 15 17  1  0  0  0  0
 17 18  1  0  0  0  0
 15 19  1  0  0  0  0
 19 20  1  0  0  0  0
  1 21  1  0  0  0  0
  1 22  1  0  0  0  0
  1 23  1  0  0  0  0
  2 24  1  0  0  0  0
  2 25  1  0  0  0  0
  6 26  1  0  0  0  0
  6 27  1  0  0  0  0
 12 28  1  0  0  0  0
 12 29  1  0  0  0  0
 13 30  1  0  0  0  0
 13 31  1  0  0  0  0
 13 32  1  0  0  0  0
 18 33  1  0  0  0  0
 18 34  1  0  0  0  0
 18 35  1  0  0  0  0
 20 36  1  0  0  0  0
 20 37  1  0  0  0  0
 20 38  1  0  0  0  0
M  END
