 xtb: 6.7.1 (edcfbbe)
          04092505203D

 41 40  0     0  0            999 V2000
    4.5285    0.6582   -2.0564 C   0  0  0  0  0  0  0  0  0  0  0  0
    4.6754    0.1508   -0.6376 C   0  0  0  0  0  0  0  0  0  0  0  0
    3.6135    0.5984    0.2261 O   0  0  0  0  0  0  0  0  0  0  0  0
    2.0668    0.3562   -0.0295 P   0  0  0  0  0  0  0  0  0  0  0  0
    1.1332    1.5202   -1.3055 S   0  0  0  0  0  0  0  0  0  0  0  0
    1.4667    0.5997    1.4099 O   0  0  0  0  0  0  0  0  0  0  0  0
    2.0785    0.2311    2.6742 C   0  0  0  0  0  0  0  0  0  0  0  0
    2.1105   -1.2673    2.8949 C   0  0  0  0  0  0  0  0  0  0  0  0
    1.9705   -1.7159   -0.5112 S   0  0  0  0  0  0  0  0  0  0  0  0
    0.2245   -1.7768   -0.9453 C   0  0  0  0  0  0  0  0  0  0  0  0
   -0.8627   -1.4740    0.4835 S   0  0  0  0  0  0  0  0  0  0  0  0
   -2.0711    0.1116   -0.2607 P   0  0  0  0  0  0  0  0  0  0  0  0
   -2.1524    0.2570   -2.2082 S   0  0  0  0  0  0  0  0  0  0  0  0
   -1.6139    1.4497    0.4287 O   0  0  0  0  0  0  0  0  0  0  0  0
   -1.5503    1.6256    1.8648 C   0  0  0  0  0  0  0  0  0  0  0  0
   -2.7747    2.3608    2.3685 C   0  0  0  0  0  0  0  0  0  0  0  0
   -3.4375   -0.1757    0.5060 O   0  0  0  0  0  0  0  0  0  0  0  0
   -4.2338   -1.3589    0.3005 C   0  0  0  0  0  0  0  0  0  0  0  0
   -5.2114   -1.1809   -0.8444 C   0  0  0  0  0  0  0  0  0  0  0  0
    3.6268    0.2493   -2.5105 H   0  0  0  0  0  0  0  0  0  0  0  0
    4.4517    1.7430   -2.0664 H   0  0  0  0  0  0  0  0  0  0  0  0
    5.3897    0.3521   -2.6413 H   0  0  0  0  0  0  0  0  0  0  0  0
    5.5749    0.5473   -0.1633 H   0  0  0  0  0  0  0  0  0  0  0  0
    4.6932   -0.9422   -0.6184 H   0  0  0  0  0  0  0  0  0  0  0  0
    3.0823    0.6574    2.7039 H   0  0  0  0  0  0  0  0  0  0  0  0
    1.4417    0.7274    3.4084 H   0  0  0  0  0  0  0  0  0  0  0  0
    2.8154   -1.7429    2.2175 H   0  0  0  0  0  0  0  0  0  0  0  0
    2.4184   -1.4626    3.9174 H   0  0  0  0  0  0  0  0  0  0  0  0
    1.1241   -1.6960    2.7315 H   0  0  0  0  0  0  0  0  0  0  0  0
    0.0369   -2.7835   -1.3102 H   0  0  0  0  0  0  0  0  0  0  0  0
   -0.0018   -1.0299   -1.7123 H   0  0  0  0  0  0  0  0  0  0  0  0
   -1.4509    0.6439    2.3371 H   0  0  0  0  0  0  0  0  0  0  0  0
   -0.6386    2.2052    2.0250 H   0  0  0  0  0  0  0  0  0  0  0  0
   -2.8713    3.3135    1.8549 H   0  0  0  0  0  0  0  0  0  0  0  0
   -3.6690    1.7717    2.1844 H   0  0  0  0  0  0  0  0  0  0  0  0
   -2.6696    2.5355    3.4347 H   0  0  0  0  0  0  0  0  0  0  0  0
   -3.5709   -2.2101    0.1225 H   0  0  0  0  0  0  0  0  0  0  0  0
   -4.7562   -1.4968    1.2493 H   0  0  0  0  0  0  0  0  0  0  0  0
   -5.8442   -0.3158   -0.6663 H   0  0  0  0  0  0  0  0  0  0  0  0
   -4.6759   -1.0318   -1.7795 H   0  0  0  0  0  0  0  0  0  0  0  0
   -5.8303   -2.0686   -0.9264 H   0  0  0  0  0  0  0  0  0  0  0  0
  1  2  1  0  0  0  0
  2  3  1  0  0  0  0
  3  4  2  0  0  0  0
  4  5  2  0  0  0  0
  4  6  2  0  0  0  0
  6  7  1  0  0  0  0
  7  8  1  0  0  0  0
  4  9  1  0  0  0  0
  9 10  1  0  0  0  0
 10 11  1  0  0  0  0
 11 12  1  0  0  0  0
 12 13  2  0  0  0  0
 12 14  2  0  0  0  0
 14 15  1  0  0  0  0
 15 16  1  0  0  0  0
 12 17  2  0  0  0  0
 17 18  1  0  0  0  0
 18 19  1  0  0  0  0
  1 20  1  0  0  0  0
  1 21  1  0  0  0  0
  1 22  1  0  0  0  0
  2 23  1  0  0  0  0
  2 24  1  0  0  0  0
  7 25  1  0  0  0  0
  7 26  1  0  0  0  0
  8 27  1  0  0  0  0
  8 28  1  0  0  0  0
  8 29  1  0  0  0  0
 10 30  1  0  0  0  0
 10 31  1  0  0  0  0
 15 32  1  0  0  0  0
 15 33  1  0  0  0  0
 16 34  1  0  0  0  0
 16 35  1  0  0  0  0
 16 36  1  0  0  0  0
 18 37  1  0  0  0  0
 18 38  1  0  0  0  0
 19 39  1  0  0  0  0
 19 40  1  0  0  0  0
 19 41  1  0  0  0  0
M  END
