 xtb: 6.7.1 (edcfbbe)
          04092507313D

 38 37  0     0  0            999 V2000
    4.0338   -2.6426    0.6622 C   0  0  0  0  0  0  0  0  0  0  0  0
    2.8410   -1.7498    0.9589 C   0  0  0  0  0  0  0  0  0  0  0  0
    2.5923   -0.8883   -0.1675 O   0  0  0  0  0  0  0  0  0  0  0  0
    1.4981   -1.0325   -0.8753 C   0  0  0  0  0  0  0  0  0  0  0  0
    0.6118   -1.8356   -0.6449 O   0  0  0  0  0  0  0  0  0  0  0  0
    1.4371   -0.0548   -2.0298 C   0  0  0  0  0  0  0  0  0  0  0  0
    0.2306    0.8748   -1.8745 C   0  0  0  0  0  0  0  0  0  0  0  0
    0.1253    1.4854   -2.7763 H   0  0  0  0  0  0  0  0  0  0  0  0
    0.3448    1.8049   -0.6780 C   0  0  0  0  0  0  0  0  0  0  0  0
   -0.5847    1.9961    0.0814 O   0  0  0  0  0  0  0  0  0  0  0  0
    1.5213    2.3596   -0.5994 O   0  0  0  0  0  0  0  0  0  0  0  0
    1.8200    3.2165    0.5246 C   0  0  0  0  0  0  0  0  0  0  0  0
    2.4736    2.4114    1.6350 C   0  0  0  0  0  0  0  0  0  0  0  0
   -1.3555   -0.0111   -1.7462 S   0  0  0  0  0  0  0  0  0  0  0  0
   -1.5633   -0.4465    0.3424 P   0  0  0  0  0  0  0  0  0  0  0  0
   -0.2842   -0.2918    1.8210 S   0  0  0  0  0  0  0  0  0  0  0  0
   -2.9745    0.2538    0.6685 O   0  0  0  0  0  0  0  0  0  0  0  0
   -3.1663    1.5578    1.2096 C   0  0  0  0  0  0  0  0  0  0  0  0
   -2.0599   -1.9540    0.3142 O   0  0  0  0  0  0  0  0  0  0  0  0
   -3.0474   -2.4614   -0.5964 C   0  0  0  0  0  0  0  0  0  0  0  0
    4.2590   -3.2364    1.5417 H   0  0  0  0  0  0  0  0  0  0  0  0
    3.8105   -3.3086   -0.1674 H   0  0  0  0  0  0  0  0  0  0  0  0
    4.8969   -2.0348    0.4075 H   0  0  0  0  0  0  0  0  0  0  0  0
    3.0365   -1.0846    1.8022 H   0  0  0  0  0  0  0  0  0  0  0  0
    1.9375   -2.3302    1.1652 H   0  0  0  0  0  0  0  0  0  0  0  0
    1.3173   -0.6256   -2.9514 H   0  0  0  0  0  0  0  0  0  0  0  0
    2.3531    0.5338   -2.0564 H   0  0  0  0  0  0  0  0  0  0  0  0
    2.5002    3.9661    0.1198 H   0  0  0  0  0  0  0  0  0  0  0  0
    0.8931    3.6810    0.8699 H   0  0  0  0  0  0  0  0  0  0  0  0
    2.7405    3.0749    2.4505 H   0  0  0  0  0  0  0  0  0  0  0  0
    1.7838    1.6548    2.0074 H   0  0  0  0  0  0  0  0  0  0  0  0
    3.3670    1.9182    1.2626 H   0  0  0  0  0  0  0  0  0  0  0  0
   -2.4029    1.7696    1.9590 H   0  0  0  0  0  0  0  0  0  0  0  0
   -4.1550    1.5426    1.6626 H   0  0  0  0  0  0  0  0  0  0  0  0
   -3.1121    2.3009    0.4156 H   0  0  0  0  0  0  0  0  0  0  0  0
   -3.9471   -1.8491   -0.5560 H   0  0  0  0  0  0  0  0  0  0  0  0
   -3.2517   -3.4729   -0.2547 H   0  0  0  0  0  0  0  0  0  0  0  0
   -2.6436   -2.4738   -1.6088 H   0  0  0  0  0  0  0  0  0  0  0  0
  1  2  1  0  0  0  0
  2  3  1  0  0  0  0
  3  4  4  0  0  0  0
  4  5  2  0  0  0  0
  4  6  1  0  0  0  0
  6  7  1  0  0  0  0
  7  8  1  0  0  0  0
  7  9  1  0  0  0  0
  9 10  2  0  0  0  0
  9 11  4  0  0  0  0
 11 12  1  0  0  0  0
 12 13  1  0  0  0  0
  7 14  1  0  0  0  0
 14 15  1  0  0  0  0
 15 16  2  0  0  0  0
 15 17  1  0  0  0  0
 17 18  1  0  0  0  0
 15 19  2  0  0  0  0
 19 20  1  0  0  0  0
  1 21  1  0  0  0  0
  1 22  1  0  0  0  0
  1 23  1  0  0  0  0
  2 24  1  0  0  0  0
  2 25  1  0  0  0  0
  6 26  1  0  0  0  0
  6 27  1  0  0  0  0
 12 28  1  0  0  0  0
 12 29  1  0  0  0  0
 13 30  1  0  0  0  0
 13 31  1  0  0  0  0
 13 32  1  0  0  0  0
 18 33  1  0  0  0  0
 18 34  1  0  0  0  0
 18 35  1  0  0  0  0
 20 36  1  0  0  0  0
 20 37  1  0  0  0  0
 20 38  1  0  0  0  0
M  END
