 xtb: 6.7.1 (edcfbbe)
          04092505203D

 41 40  0     0  0            999 V2000
    3.3291    0.0353   -2.6220 C   0  0  0  0  0  0  0  0  0  0  0  0
    1.9174    0.4142   -2.2315 C   0  0  0  0  0  0  0  0  0  0  0  0
    1.3727   -0.4874   -1.2480 O   0  0  0  0  0  0  0  0  0  0  0  0
    1.9601   -0.5977    0.2151 P   0  0  0  0  0  0  0  0  0  0  0  0
    2.6487    1.0401    1.0528 S   0  0  0  0  0  0  0  0  0  0  0  0
    3.0098   -1.7768    0.0158 O   0  0  0  0  0  0  0  0  0  0  0  0
    3.8401   -2.2563    1.0921 C   0  0  0  0  0  0  0  0  0  0  0  0
    5.2077   -1.6023    1.0497 C   0  0  0  0  0  0  0  0  0  0  0  0
    0.4278   -1.5941    1.2607 S   0  0  0  0  0  0  0  0  0  0  0  0
   -0.3281   -0.2098    2.1797 C   0  0  0  0  0  0  0  0  0  0  0  0
   -2.0741    0.0148    1.7823 S   0  0  0  0  0  0  0  0  0  0  0  0
   -1.8301    0.7302   -0.2066 P   0  0  0  0  0  0  0  0  0  0  0  0
   -0.4964    2.1443   -0.4264 S   0  0  0  0  0  0  0  0  0  0  0  0
   -3.3148    1.1300   -0.5986 O   0  0  0  0  0  0  0  0  0  0  0  0
   -3.9548    2.2823   -0.0104 C   0  0  0  0  0  0  0  0  0  0  0  0
   -5.2084    2.5747   -0.8092 C   0  0  0  0  0  0  0  0  0  0  0  0
   -1.5416   -0.5145   -1.1222 O   0  0  0  0  0  0  0  0  0  0  0  0
   -2.3717   -1.7050   -1.1542 C   0  0  0  0  0  0  0  0  0  0  0  0
   -3.3674   -1.6330   -2.2923 C   0  0  0  0  0  0  0  0  0  0  0  0
    3.6634    0.6806   -3.4283 H   0  0  0  0  0  0  0  0  0  0  0  0
    3.9925    0.1626   -1.7671 H   0  0  0  0  0  0  0  0  0  0  0  0
    3.3633   -1.0021   -2.9444 H   0  0  0  0  0  0  0  0  0  0  0  0
    1.2210    0.3337   -3.0676 H   0  0  0  0  0  0  0  0  0  0  0  0
    1.8804    1.4315   -1.8271 H   0  0  0  0  0  0  0  0  0  0  0  0
    3.3435   -2.0614    2.0470 H   0  0  0  0  0  0  0  0  0  0  0  0
    3.9078   -3.3335    0.9302 H   0  0  0  0  0  0  0  0  0  0  0  0
    5.8283   -2.0202    1.8356 H   0  0  0  0  0  0  0  0  0  0  0  0
    5.6778   -1.7801    0.0866 H   0  0  0  0  0  0  0  0  0  0  0  0
    5.1149   -0.5294    1.2048 H   0  0  0  0  0  0  0  0  0  0  0  0
    0.2289    0.7052    1.9572 H   0  0  0  0  0  0  0  0  0  0  0  0
   -0.2868   -0.4467    3.2396 H   0  0  0  0  0  0  0  0  0  0  0  0
   -4.1884    2.0474    1.0313 H   0  0  0  0  0  0  0  0  0  0  0  0
   -3.2523    3.1215   -0.0395 H   0  0  0  0  0  0  0  0  0  0  0  0
   -5.7066    3.4391   -0.3827 H   0  0  0  0  0  0  0  0  0  0  0  0
   -4.9520    2.7837   -1.8440 H   0  0  0  0  0  0  0  0  0  0  0  0
   -5.8789    1.7210   -0.7755 H   0  0  0  0  0  0  0  0  0  0  0  0
   -1.6615   -2.5234   -1.2887 H   0  0  0  0  0  0  0  0  0  0  0  0
   -2.8765   -1.8114   -0.1898 H   0  0  0  0  0  0  0  0  0  0  0  0
   -3.9295   -2.5611   -2.3280 H   0  0  0  0  0  0  0  0  0  0  0  0
   -4.0519   -0.8027   -2.1410 H   0  0  0  0  0  0  0  0  0  0  0  0
   -2.8474   -1.4915   -3.2358 H   0  0  0  0  0  0  0  0  0  0  0  0
  1  2  1  0  0  0  0
  2  3  1  0  0  0  0
  3  4  2  0  0  0  0
  4  5  2  0  0  0  0
  4  6  2  0  0  0  0
  6  7  1  0  0  0  0
  7  8  1  0  0  0  0
  4  9  1  0  0  0  0
  9 10  1  0  0  0  0
 10 11  1  0  0  0  0
 11 12  1  0  0  0  0
 12 13  2  0  0  0  0
 12 14  2  0  0  0  0
 14 15  1  0  0  0  0
 15 16  1  0  0  0  0
 12 17  2  0  0  0  0
 17 18  1  0  0  0  0
 18 19  1  0  0  0  0
  1 20  1  0  0  0  0
  1 21  1  0  0  0  0
  1 22  1  0  0  0  0
  2 23  1  0  0  0  0
  2 24  1  0  0  0  0
  7 25  1  0  0  0  0
  7 26  1  0  0  0  0
  8 27  1  0  0  0  0
  8 28  1  0  0  0  0
  8 29  1  0  0  0  0
 10 30  1  0  0  0  0
 10 31  1  0  0  0  0
 15 32  1  0  0  0  0
 15 33  1  0  0  0  0
 16 34  1  0  0  0  0
 16 35  1  0  0  0  0
 16 36  1  0  0  0  0
 18 37  1  0  0  0  0
 18 38  1  0  0  0  0
 19 39  1  0  0  0  0
 19 40  1  0  0  0  0
 19 41  1  0  0  0  0
M  END
