 xtb: 6.7.1 (edcfbbe)
          04092505213D

 41 40  0     0  0            999 V2000
    4.5262    0.9363   -2.0325 C   0  0  0  0  0  0  0  0  0  0  0  0
    4.1072   -0.0745   -0.9856 C   0  0  0  0  0  0  0  0  0  0  0  0
    3.0908    0.5498   -0.1522 O   0  0  0  0  0  0  0  0  0  0  0  0
    2.1338   -0.2768    0.7842 P   0  0  0  0  0  0  0  0  0  0  0  0
    1.1979    0.8255    2.1009 S   0  0  0  0  0  0  0  0  0  0  0  0
    3.1226   -1.3483    1.4213 O   0  0  0  0  0  0  0  0  0  0  0  0
    2.7823   -2.1078    2.5943 C   0  0  0  0  0  0  0  0  0  0  0  0
    1.6908   -3.1194    2.3123 C   0  0  0  0  0  0  0  0  0  0  0  0
    0.9555   -1.4701   -0.5575 S   0  0  0  0  0  0  0  0  0  0  0  0
    0.6239   -0.2441   -1.8582 C   0  0  0  0  0  0  0  0  0  0  0  0
   -0.0188    1.3367   -1.2412 S   0  0  0  0  0  0  0  0  0  0  0  0
   -1.9825    0.6867   -0.7776 P   0  0  0  0  0  0  0  0  0  0  0  0
   -2.6848   -0.7975   -1.8477 S   0  0  0  0  0  0  0  0  0  0  0  0
   -2.6621    2.1008   -0.9621 O   0  0  0  0  0  0  0  0  0  0  0  0
   -4.0717    2.2537   -1.2317 C   0  0  0  0  0  0  0  0  0  0  0  0
   -4.9199    1.9356   -0.0182 C   0  0  0  0  0  0  0  0  0  0  0  0
   -2.0501    0.4748    0.7964 O   0  0  0  0  0  0  0  0  0  0  0  0
   -1.9924   -0.8035    1.4547 C   0  0  0  0  0  0  0  0  0  0  0  0
   -3.3744   -1.2216    1.9155 C   0  0  0  0  0  0  0  0  0  0  0  0
    5.2850    0.4942   -2.6703 H   0  0  0  0  0  0  0  0  0  0  0  0
    3.6757    1.2357   -2.6397 H   0  0  0  0  0  0  0  0  0  0  0  0
    4.9311    1.8218   -1.5514 H   0  0  0  0  0  0  0  0  0  0  0  0
    4.9411   -0.3498   -0.3378 H   0  0  0  0  0  0  0  0  0  0  0  0
    3.6917   -0.9816   -1.4332 H   0  0  0  0  0  0  0  0  0  0  0  0
    3.7194   -2.5906    2.8741 H   0  0  0  0  0  0  0  0  0  0  0  0
    2.4717   -1.4104    3.3789 H   0  0  0  0  0  0  0  0  0  0  0  0
    1.5249   -3.7271    3.1958 H   0  0  0  0  0  0  0  0  0  0  0  0
    0.7649   -2.6037    2.0591 H   0  0  0  0  0  0  0  0  0  0  0  0
    1.9714   -3.7588    1.4795 H   0  0  0  0  0  0  0  0  0  0  0  0
   -0.1136   -0.7087   -2.5152 H   0  0  0  0  0  0  0  0  0  0  0  0
    1.5382   -0.0151   -2.3982 H   0  0  0  0  0  0  0  0  0  0  0  0
   -4.1664    3.2991   -1.5290 H   0  0  0  0  0  0  0  0  0  0  0  0
   -4.3348    1.6026   -2.0718 H   0  0  0  0  0  0  0  0  0  0  0  0
   -5.9560    2.1807   -0.2300 H   0  0  0  0  0  0  0  0  0  0  0  0
   -4.8470    0.8759    0.2190 H   0  0  0  0  0  0  0  0  0  0  0  0
   -4.5782    2.5116    0.8380 H   0  0  0  0  0  0  0  0  0  0  0  0
   -1.5770   -1.5499    0.7701 H   0  0  0  0  0  0  0  0  0  0  0  0
   -1.3130   -0.6555    2.2976 H   0  0  0  0  0  0  0  0  0  0  0  0
   -3.2916   -2.1347    2.4958 H   0  0  0  0  0  0  0  0  0  0  0  0
   -3.8154   -0.4424    2.5307 H   0  0  0  0  0  0  0  0  0  0  0  0
   -4.0135   -1.4077    1.0547 H   0  0  0  0  0  0  0  0  0  0  0  0
  1  2  1  0  0  0  0
  2  3  1  0  0  0  0
  3  4  2  0  0  0  0
  4  5  2  0  0  0  0
  4  6  2  0  0  0  0
  6  7  1  0  0  0  0
  7  8  1  0  0  0  0
  4  9  1  0  0  0  0
  9 10  1  0  0  0  0
 10 11  1  0  0  0  0
 11 12  1  0  0  0  0
 12 13  2  0  0  0  0
 12 14  2  0  0  0  0
 14 15  1  0  0  0  0
 15 16  1  0  0  0  0
 12 17  2  0  0  0  0
 17 18  1  0  0  0  0
 18 19  1  0  0  0  0
  1 20  1  0  0  0  0
  1 21  1  0  0  0  0
  1 22  1  0  0  0  0
  2 23  1  0  0  0  0
  2 24  1  0  0  0  0
  7 25  1  0  0  0  0
  7 26  1  0  0  0  0
  8 27  1  0  0  0  0
  8 28  1  0  0  0  0
  8 29  1  0  0  0  0
 10 30  1  0  0  0  0
 10 31  1  0  0  0  0
 15 32  1  0  0  0  0
 15 33  1  0  0  0  0
 16 34  1  0  0  0  0
 16 35  1  0  0  0  0
 16 36  1  0  0  0  0
 18 37  1  0  0  0  0
 18 38  1  0  0  0  0
 19 39  1  0  0  0  0
 19 40  1  0  0  0  0
 19 41  1  0  0  0  0
M  END
