 xtb: 6.7.1 (edcfbbe)
          04092507313D

 38 37  0     0  0            999 V2000
    5.1594   -3.3216   -0.2806 C   0  0  0  0  0  0  0  0  0  0  0  0
    4.4734   -2.0171    0.0725 C   0  0  0  0  0  0  0  0  0  0  0  0
    3.1695   -2.0203   -0.5452 O   0  0  0  0  0  0  0  0  0  0  0  0
    2.4535   -0.9235   -0.4833 C   0  0  0  0  0  0  0  0  0  0  0  0
    2.8258    0.1088    0.0426 O   0  0  0  0  0  0  0  0  0  0  0  0
    1.0951   -1.0924   -1.1193 C   0  0  0  0  0  0  0  0  0  0  0  0
    0.4602    0.2695   -1.3727 C   0  0  0  0  0  0  0  0  0  0  0  0
    0.8232    0.7274   -2.2939 H   0  0  0  0  0  0  0  0  0  0  0  0
    0.6800    1.2288   -0.2180 C   0  0  0  0  0  0  0  0  0  0  0  0
    0.2324    1.0130    0.8928 O   0  0  0  0  0  0  0  0  0  0  0  0
    1.2634    2.3350   -0.5991 O   0  0  0  0  0  0  0  0  0  0  0  0
    1.5032    3.3553    0.3932 C   0  0  0  0  0  0  0  0  0  0  0  0
    0.2400    4.1487    0.6869 C   0  0  0  0  0  0  0  0  0  0  0  0
   -1.3472    0.1525   -1.5495 S   0  0  0  0  0  0  0  0  0  0  0  0
   -2.0234   -0.2486    0.4409 P   0  0  0  0  0  0  0  0  0  0  0  0
   -1.1748   -1.6305    1.5447 S   0  0  0  0  0  0  0  0  0  0  0  0
   -2.3530    1.1248    1.1599 O   0  0  0  0  0  0  0  0  0  0  0  0
   -3.2681    2.0808    0.5886 C   0  0  0  0  0  0  0  0  0  0  0  0
   -3.5224   -0.6767    0.0476 O   0  0  0  0  0  0  0  0  0  0  0  0
   -3.8108   -1.9457   -0.5454 C   0  0  0  0  0  0  0  0  0  0  0  0
    5.2666   -3.4073   -1.3575 H   0  0  0  0  0  0  0  0  0  0  0  0
    6.1406   -3.3459    0.1813 H   0  0  0  0  0  0  0  0  0  0  0  0
    4.5709   -4.1589    0.0817 H   0  0  0  0  0  0  0  0  0  0  0  0
    5.0265   -1.1477   -0.2965 H   0  0  0  0  0  0  0  0  0  0  0  0
    4.3384   -1.9066    1.1528 H   0  0  0  0  0  0  0  0  0  0  0  0
    0.4973   -1.6637   -0.3977 H   0  0  0  0  0  0  0  0  0  0  0  0
    1.1689   -1.6775   -2.0346 H   0  0  0  0  0  0  0  0  0  0  0  0
    1.8815    2.8688    1.2964 H   0  0  0  0  0  0  0  0  0  0  0  0
    2.2768    3.9788   -0.0543 H   0  0  0  0  0  0  0  0  0  0  0  0
    0.4784    4.9570    1.3702 H   0  0  0  0  0  0  0  0  0  0  0  0
   -0.1652    4.5619   -0.2328 H   0  0  0  0  0  0  0  0  0  0  0  0
   -0.5035    3.5040    1.1508 H   0  0  0  0  0  0  0  0  0  0  0  0
   -2.9778    2.3149   -0.4363 H   0  0  0  0  0  0  0  0  0  0  0  0
   -3.1923    2.9607    1.2227 H   0  0  0  0  0  0  0  0  0  0  0  0
   -4.2788    1.6778    0.6046 H   0  0  0  0  0  0  0  0  0  0  0  0
   -3.5256   -1.9350   -1.5967 H   0  0  0  0  0  0  0  0  0  0  0  0
   -4.8839   -2.0820   -0.4396 H   0  0  0  0  0  0  0  0  0  0  0  0
   -3.2723   -2.7353   -0.0184 H   0  0  0  0  0  0  0  0  0  0  0  0
  1  2  1  0  0  0  0
  2  3  1  0  0  0  0
  3  4  4  0  0  0  0
  4  5  2  0  0  0  0
  4  6  1  0  0  0  0
  6  7  1  0  0  0  0
  7  8  1  0  0  0  0
  7  9  1  0  0  0  0
  9 10  2  0  0  0  0
  9 11  4  0  0  0  0
 11 12  1  0  0  0  0
 12 13  1  0  0  0  0
  7 14  1  0  0  0  0
 14 15  1  0  0  0  0
 15 16  2  0  0  0  0
 15 17  2  0  0  0  0
 17 18  1  0  0  0  0
 15 19  1  0  0  0  0
 19 20  1  0  0  0  0
  1 21  1  0  0  0  0
  1 22  1  0  0  0  0
  1 23  1  0  0  0  0
  2 24  1  0  0  0  0
  2 25  1  0  0  0  0
  6 26  1  0  0  0  0
  6 27  1  0  0  0  0
 12 28  1  0  0  0  0
 12 29  1  0  0  0  0
 13 30  1  0  0  0  0
 13 31  1  0  0  0  0
 13 32  1  0  0  0  0
 18 33  1  0  0  0  0
 18 34  1  0  0  0  0
 18 35  1  0  0  0  0
 20 36  1  0  0  0  0
 20 37  1  0  0  0  0
 20 38  1  0  0  0  0
M  END
