 xtb: 6.7.1 (edcfbbe)
          04092507313D

 38 37  0     0  0            999 V2000
    3.0027   -3.7741   -0.3742 C   0  0  0  0  0  0  0  0  0  0  0  0
    1.5897   -3.2238   -0.4832 C   0  0  0  0  0  0  0  0  0  0  0  0
    1.5423   -2.0849   -1.3616 O   0  0  0  0  0  0  0  0  0  0  0  0
    1.8724   -0.9023   -0.8955 C   0  0  0  0  0  0  0  0  0  0  0  0
    2.2174   -0.6728    0.2462 O   0  0  0  0  0  0  0  0  0  0  0  0
    1.7289    0.1747   -1.9554 C   0  0  0  0  0  0  0  0  0  0  0  0
    0.5505    1.0876   -1.5851 C   0  0  0  0  0  0  0  0  0  0  0  0
    0.4723    1.9082   -2.3000 H   0  0  0  0  0  0  0  0  0  0  0  0
    0.7554    1.6320   -0.1894 C   0  0  0  0  0  0  0  0  0  0  0  0
    0.1524    1.1958    0.7759 O   0  0  0  0  0  0  0  0  0  0  0  0
    1.6298    2.5904   -0.1595 O   0  0  0  0  0  0  0  0  0  0  0  0
    2.0186    3.1412    1.1204 C   0  0  0  0  0  0  0  0  0  0  0  0
    3.2386    2.4071    1.6507 C   0  0  0  0  0  0  0  0  0  0  0  0
   -1.0259    0.1665   -1.6497 S   0  0  0  0  0  0  0  0  0  0  0  0
   -1.7509   -0.1104    0.3344 P   0  0  0  0  0  0  0  0  0  0  0  0
   -2.6273    1.3254    1.3640 S   0  0  0  0  0  0  0  0  0  0  0  0
   -2.8707   -1.1838   -0.1101 O   0  0  0  0  0  0  0  0  0  0  0  0
   -4.0699   -0.8033   -0.7842 C   0  0  0  0  0  0  0  0  0  0  0  0
   -0.8756   -1.2060    1.0913 O   0  0  0  0  0  0  0  0  0  0  0  0
   -0.2679   -1.0064    2.3691 C   0  0  0  0  0  0  0  0  0  0  0  0
    2.9900   -4.6709    0.2361 H   0  0  0  0  0  0  0  0  0  0  0  0
    3.3853   -4.0174   -1.3615 H   0  0  0  0  0  0  0  0  0  0  0  0
    3.6570   -3.0403    0.0908 H   0  0  0  0  0  0  0  0  0  0  0  0
    1.2067   -2.9257    0.4970 H   0  0  0  0  0  0  0  0  0  0  0  0
    0.9132   -3.9442   -0.9432 H   0  0  0  0  0  0  0  0  0  0  0  0
    1.5398   -0.2905   -2.9211 H   0  0  0  0  0  0  0  0  0  0  0  0
    2.6404    0.7736   -1.9844 H   0  0  0  0  0  0  0  0  0  0  0  0
    2.2372    4.1882    0.9108 H   0  0  0  0  0  0  0  0  0  0  0  0
    1.1738    3.0568    1.8087 H   0  0  0  0  0  0  0  0  0  0  0  0
    4.0833    2.5483    0.9828 H   0  0  0  0  0  0  0  0  0  0  0  0
    3.4898    2.7904    2.6338 H   0  0  0  0  0  0  0  0  0  0  0  0
    3.0274    1.3420    1.7272 H   0  0  0  0  0  0  0  0  0  0  0  0
   -4.7535   -1.6402   -0.6641 H   0  0  0  0  0  0  0  0  0  0  0  0
   -3.8667   -0.6225   -1.8400 H   0  0  0  0  0  0  0  0  0  0  0  0
   -4.4882    0.0960   -0.3265 H   0  0  0  0  0  0  0  0  0  0  0  0
   -0.7107   -0.1453    2.8720 H   0  0  0  0  0  0  0  0  0  0  0  0
    0.8010   -0.8412    2.2306 H   0  0  0  0  0  0  0  0  0  0  0  0
   -0.4514   -1.9142    2.9401 H   0  0  0  0  0  0  0  0  0  0  0  0
  1  2  1  0  0  0  0
  2  3  1  0  0  0  0
  3  4  4  0  0  0  0
  4  5  2  0  0  0  0
  4  6  1  0  0  0  0
  6  7  1  0  0  0  0
  7  8  1  0  0  0  0
  7  9  1  0  0  0  0
  9 10  2  0  0  0  0
  9 11  4  0  0  0  0
 11 12  1  0  0  0  0
 12 13  1  0  0  0  0
  7 14  1  0  0  0  0
 14 15  1  0  0  0  0
 15 16  2  0  0  0  0
 15 17  1  0  0  0  0
 17 18  1  0  0  0  0
 15 19  1  0  0  0  0
 19 20  1  0  0  0  0
  1 21  1  0  0  0  0
  1 22  1  0  0  0  0
  1 23  1  0  0  0  0
  2 24  1  0  0  0  0
  2 25  1  0  0  0  0
  6 26  1  0  0  0  0
  6 27  1  0  0  0  0
 12 28  1  0  0  0  0
 12 29  1  0  0  0  0
 13 30  1  0  0  0  0
 13 31  1  0  0  0  0
 13 32  1  0  0  0  0
 18 33  1  0  0  0  0
 18 34  1  0  0  0  0
 18 35  1  0  0  0  0
 20 36  1  0  0  0  0
 20 37  1  0  0  0  0
 20 38  1  0  0  0  0
M  END
