 xtb: 6.7.1 (edcfbbe)
          04092505203D

 41 40  0     0  0            999 V2000
    1.6125   -2.1584    1.8261 C   0  0  0  0  0  0  0  0  0  0  0  0
    3.0393   -1.9932    1.3447 C   0  0  0  0  0  0  0  0  0  0  0  0
    3.3301   -0.6325    0.9789 O   0  0  0  0  0  0  0  0  0  0  0  0
    2.8799    0.0032   -0.4091 P   0  0  0  0  0  0  0  0  0  0  0  0
    2.9639   -1.2077   -1.9458 S   0  0  0  0  0  0  0  0  0  0  0  0
    3.8785    1.2144   -0.5549 O   0  0  0  0  0  0  0  0  0  0  0  0
    4.4323    1.9819    0.5418 C   0  0  0  0  0  0  0  0  0  0  0  0
    3.3649    2.6740    1.3617 C   0  0  0  0  0  0  0  0  0  0  0  0
    0.9683    0.9270   -0.0964 S   0  0  0  0  0  0  0  0  0  0  0  0
   -0.0419    0.0004   -1.2806 C   0  0  0  0  0  0  0  0  0  0  0  0
   -1.2177   -1.1164   -0.4859 S   0  0  0  0  0  0  0  0  0  0  0  0
   -2.6717    0.3729   -0.0174 P   0  0  0  0  0  0  0  0  0  0  0  0
   -2.9511    1.7404   -1.3919 S   0  0  0  0  0  0  0  0  0  0  0  0
   -2.2220    1.0316    1.3396 O   0  0  0  0  0  0  0  0  0  0  0  0
   -1.6045    0.3758    2.4748 C   0  0  0  0  0  0  0  0  0  0  0  0
   -2.3788   -0.8320    2.9543 C   0  0  0  0  0  0  0  0  0  0  0  0
   -3.9706   -0.4466    0.3879 O   0  0  0  0  0  0  0  0  0  0  0  0
   -4.9571   -0.8604   -0.5720 C   0  0  0  0  0  0  0  0  0  0  0  0
   -4.4243   -1.9048   -1.5320 C   0  0  0  0  0  0  0  0  0  0  0  0
    1.4780   -3.1678    2.2007 H   0  0  0  0  0  0  0  0  0  0  0  0
    1.4002   -1.4502    2.6228 H   0  0  0  0  0  0  0  0  0  0  0  0
    0.9146   -1.9992    1.0055 H   0  0  0  0  0  0  0  0  0  0  0  0
    3.2366   -2.6366    0.4813 H   0  0  0  0  0  0  0  0  0  0  0  0
    3.7565   -2.2089    2.1383 H   0  0  0  0  0  0  0  0  0  0  0  0
    5.0266    1.3088    1.1624 H   0  0  0  0  0  0  0  0  0  0  0  0
    5.0833    2.6986    0.0391 H   0  0  0  0  0  0  0  0  0  0  0  0
    2.7458    3.3052    0.7289 H   0  0  0  0  0  0  0  0  0  0  0  0
    2.7281    1.9368    1.8477 H   0  0  0  0  0  0  0  0  0  0  0  0
    3.8410    3.2866    2.1210 H   0  0  0  0  0  0  0  0  0  0  0  0
    0.6178   -0.6044   -1.9078 H   0  0  0  0  0  0  0  0  0  0  0  0
   -0.6021    0.7231   -1.8761 H   0  0  0  0  0  0  0  0  0  0  0  0
   -0.5857    0.1034    2.1882 H   0  0  0  0  0  0  0  0  0  0  0  0
   -1.5750    1.1652    3.2272 H   0  0  0  0  0  0  0  0  0  0  0  0
   -3.4090   -0.5587    3.1662 H   0  0  0  0  0  0  0  0  0  0  0  0
   -2.3707   -1.6114    2.1949 H   0  0  0  0  0  0  0  0  0  0  0  0
   -1.9148   -1.2138    3.8585 H   0  0  0  0  0  0  0  0  0  0  0  0
   -5.7673   -1.2553    0.0426 H   0  0  0  0  0  0  0  0  0  0  0  0
   -5.3016    0.0233   -1.1186 H   0  0  0  0  0  0  0  0  0  0  0  0
   -3.9763   -2.7304   -0.9849 H   0  0  0  0  0  0  0  0  0  0  0  0
   -5.2394   -2.2777   -2.1438 H   0  0  0  0  0  0  0  0  0  0  0  0
   -3.6711   -1.4641   -2.1834 H   0  0  0  0  0  0  0  0  0  0  0  0
  1  2  1  0  0  0  0
  2  3  1  0  0  0  0
  3  4  2  0  0  0  0
  4  5  2  0  0  0  0
  4  6  2  0  0  0  0
  6  7  1  0  0  0  0
  7  8  1  0  0  0  0
  4  9  1  0  0  0  0
  9 10  1  0  0  0  0
 10 11  1  0  0  0  0
 11 12  1  0  0  0  0
 12 13  2  0  0  0  0
 12 14  2  0  0  0  0
 14 15  1  0  0  0  0
 15 16  1  0  0  0  0
 12 17  2  0  0  0  0
 17 18  1  0  0  0  0
 18 19  1  0  0  0  0
  1 20  1  0  0  0  0
  1 21  1  0  0  0  0
  1 22  1  0  0  0  0
  2 23  1  0  0  0  0
  2 24  1  0  0  0  0
  7 25  1  0  0  0  0
  7 26  1  0  0  0  0
  8 27  1  0  0  0  0
  8 28  1  0  0  0  0
  8 29  1  0  0  0  0
 10 30  1  0  0  0  0
 10 31  1  0  0  0  0
 15 32  1  0  0  0  0
 15 33  1  0  0  0  0
 16 34  1  0  0  0  0
 16 35  1  0  0  0  0
 16 36  1  0  0  0  0
 18 37  1  0  0  0  0
 18 38  1  0  0  0  0
 19 39  1  0  0  0  0
 19 40  1  0  0  0  0
 19 41  1  0  0  0  0
M  END
