 xtb: 6.7.1 (edcfbbe)
          04092505213D

 41 40  0     0  0            999 V2000
    5.4125    0.5076   -0.4713 C   0  0  0  0  0  0  0  0  0  0  0  0
    4.7051   -0.8134   -0.6870 C   0  0  0  0  0  0  0  0  0  0  0  0
    3.5045   -0.9130    0.1065 O   0  0  0  0  0  0  0  0  0  0  0  0
    2.2303   -0.0199   -0.1783 P   0  0  0  0  0  0  0  0  0  0  0  0
    1.8925    0.3530   -2.0775 S   0  0  0  0  0  0  0  0  0  0  0  0
    2.4912    1.2160    0.7850 O   0  0  0  0  0  0  0  0  0  0  0  0
    1.6847    2.4100    0.7975 C   0  0  0  0  0  0  0  0  0  0  0  0
    2.3046    3.4819   -0.0777 C   0  0  0  0  0  0  0  0  0  0  0  0
    0.7912   -1.1622    0.8682 S   0  0  0  0  0  0  0  0  0  0  0  0
   -0.0595   -1.9246   -0.5562 C   0  0  0  0  0  0  0  0  0  0  0  0
   -1.8123   -2.2162   -0.2183 S   0  0  0  0  0  0  0  0  0  0  0  0
   -2.3823   -0.2361    0.2089 P   0  0  0  0  0  0  0  0  0  0  0  0
   -1.5122    1.2379   -0.7608 S   0  0  0  0  0  0  0  0  0  0  0  0
   -2.1995   -0.2358    1.7783 O   0  0  0  0  0  0  0  0  0  0  0  0
   -2.1122    0.9691    2.5716 C   0  0  0  0  0  0  0  0  0  0  0  0
   -1.0499    0.7698    3.6340 C   0  0  0  0  0  0  0  0  0  0  0  0
   -3.9679   -0.2365    0.0833 O   0  0  0  0  0  0  0  0  0  0  0  0
   -4.6550    0.0572   -1.1459 C   0  0  0  0  0  0  0  0  0  0  0  0
   -4.4161   -1.0033   -2.2011 C   0  0  0  0  0  0  0  0  0  0  0  0
    6.3581    0.5025   -1.0044 H   0  0  0  0  0  0  0  0  0  0  0  0
    4.7955    1.3208   -0.8512 H   0  0  0  0  0  0  0  0  0  0  0  0
    5.5926    0.6680    0.5884 H   0  0  0  0  0  0  0  0  0  0  0  0
    5.3084   -1.6583   -0.3531 H   0  0  0  0  0  0  0  0  0  0  0  0
    4.4340   -0.9389   -1.7402 H   0  0  0  0  0  0  0  0  0  0  0  0
    0.6722    2.1764    0.4573 H   0  0  0  0  0  0  0  0  0  0  0  0
    1.6591    2.7160    1.8450 H   0  0  0  0  0  0  0  0  0  0  0  0
    2.3140    3.1568   -1.1161 H   0  0  0  0  0  0  0  0  0  0  0  0
    1.7131    4.3886   -0.0022 H   0  0  0  0  0  0  0  0  0  0  0  0
    3.3228    3.6857    0.2420 H   0  0  0  0  0  0  0  0  0  0  0  0
    0.3725   -2.9013   -0.7596 H   0  0  0  0  0  0  0  0  0  0  0  0
    0.0495   -1.2569   -1.4161 H   0  0  0  0  0  0  0  0  0  0  0  0
   -1.8666    1.8097    1.9127 H   0  0  0  0  0  0  0  0  0  0  0  0
   -3.0962    1.1343    3.0153 H   0  0  0  0  0  0  0  0  0  0  0  0
   -1.2968   -0.0931    4.2453 H   0  0  0  0  0  0  0  0  0  0  0  0
   -0.0812    0.5980    3.1704 H   0  0  0  0  0  0  0  0  0  0  0  0
   -1.0003    1.6552    4.2594 H   0  0  0  0  0  0  0  0  0  0  0  0
   -5.7044    0.1062   -0.8525 H   0  0  0  0  0  0  0  0  0  0  0  0
   -4.3212    1.0373   -1.5017 H   0  0  0  0  0  0  0  0  0  0  0  0
   -3.3744   -0.9840   -2.5201 H   0  0  0  0  0  0  0  0  0  0  0  0
   -4.6411   -1.9895   -1.8031 H   0  0  0  0  0  0  0  0  0  0  0  0
   -5.0494   -0.8053   -3.0599 H   0  0  0  0  0  0  0  0  0  0  0  0
  1  2  1  0  0  0  0
  2  3  1  0  0  0  0
  3  4  2  0  0  0  0
  4  5  2  0  0  0  0
  4  6  2  0  0  0  0
  6  7  1  0  0  0  0
  7  8  1  0  0  0  0
  4  9  1  0  0  0  0
  9 10  1  0  0  0  0
 10 11  1  0  0  0  0
 11 12  1  0  0  0  0
 12 13  2  0  0  0  0
 12 14  2  0  0  0  0
 14 15  1  0  0  0  0
 15 16  1  0  0  0  0
 12 17  2  0  0  0  0
 17 18  1  0  0  0  0
 18 19  1  0  0  0  0
  1 20  1  0  0  0  0
  1 21  1  0  0  0  0
  1 22  1  0  0  0  0
  2 23  1  0  0  0  0
  2 24  1  0  0  0  0
  7 25  1  0  0  0  0
  7 26  1  0  0  0  0
  8 27  1  0  0  0  0
  8 28  1  0  0  0  0
  8 29  1  0  0  0  0
 10 30  1  0  0  0  0
 10 31  1  0  0  0  0
 15 32  1  0  0  0  0
 15 33  1  0  0  0  0
 16 34  1  0  0  0  0
 16 35  1  0  0  0  0
 16 36  1  0  0  0  0
 18 37  1  0  0  0  0
 18 38  1  0  0  0  0
 19 39  1  0  0  0  0
 19 40  1  0  0  0  0
 19 41  1  0  0  0  0
M  END
