17
 xtb: 6.7.1 (edcfbbe)
C           -1.84942849142810       -0.00017766144571        0.07215699918467
C           -1.06524016584734        1.25672638156325       -0.29687982673116
C            0.31640783788895        1.27170618706059        0.38710608309075
C            1.06868391631205        0.00015847768540        0.10915949136969
O            2.21786724205702        0.00025169414556       -0.32755406646796
C            0.31665554653530       -1.27149983001481        0.38723035248390
C           -1.06487610102362       -1.25681631766407       -0.29699680393418
H           -2.81668101801512       -0.00028258397757       -0.44252426341584
H           -2.05504850263335       -0.00026974095318        1.15094400496113
H           -0.92486713262071        1.29382885278330       -1.38454046031089
H           -1.61398886630787        2.15934643045901       -0.00977907611326
H            0.91786294555716        2.13000040153959        0.07693434721823
H            0.16609463370288        1.32532184706669        1.47483156032312
H            0.91831798625505       -2.12973154162121        0.07728994745216
H            0.16613834810522       -1.32497265460672        1.47493394521271
H           -0.92430539848562       -1.29367574046930       -1.38464369686478
H           -1.61342333373532       -2.15964138790851       -0.01015436244047
