41
 xtb: 6.7.1 (edcfbbe)
C            5.70649831271683       -1.50090952694025        0.75256115162852
C            4.48347012638551       -1.44210558487165       -0.12486977679287
O            3.68307396648779       -0.29602338204758        0.32897293254824
P            2.30549707529071        0.08892535945317       -0.41469267018858
S            2.32075615172265        0.13406260879636       -2.36179373810561
O            1.93646189426057        1.45466462555871        0.34350463078245
C            2.31762910802831        2.77059242500550       -0.19514026180272
C            3.79689452227776        3.02887908673484       -0.05231298024351
S            0.96063573922057       -1.28824872666841        0.46736584738515
C           -0.39517973231760       -1.27938541721093       -0.77296648849386
S           -1.30764858657760        0.30531738086831       -0.99391360164686
P           -2.90710258227317        0.09463905959430        0.37143398976629
S           -4.12680577689543        1.59263520472536        0.13291367170426
O           -2.28064533817949       -0.15091328013285        1.83148339250369
C           -2.04583144303460        0.94605357290599        2.78136436066586
C           -0.77502921844886        1.70294766316902        2.48556922019926
O           -3.48368898357794       -1.39602628467715        0.19026824153474
C           -4.50030671238523       -1.73190168950354       -0.81694954531311
C           -3.92008397361307       -1.89347902454583       -2.20055799448312
H            6.29495629905709       -0.58358595779710        0.66144611261053
H            5.43136709306058       -1.64801215346528        1.80063662805739
H            6.32832587650607       -2.34383314237247        0.43629248639030
H            3.87449052690286       -2.34791197657085       -0.03540447735503
H            4.74229148667639       -1.28259843080959       -1.17588215623242
H            1.98753228548178        2.82284393444988       -1.23714924229574
H            1.72538593833578        3.46712891995076        0.40167206747570
H            4.11456203396375        2.92219958213413        0.98878000400701
H            4.38690896539914        2.35208208392452       -0.67742670667801
H            4.00367241192680        4.05486803530598       -0.37398785262417
H           -1.08473988432406       -2.07114516496564       -0.46656341542727
H            0.02104057659001       -1.52984180108215       -1.75219652004843
H           -2.92364199822009        1.59898140638219        2.77312995417823
H           -1.99228238789717        0.43622535665090        3.74545904089629
H           -0.62497068149779        2.44293808389511        3.27897176607144
H            0.08632052131381        1.03096199910269        2.46983700489208
H           -0.83031217864337        2.23358491241033        1.53075798051384
H           -4.91476701697498       -2.67190173556543       -0.44740417691728
H           -5.27956575340230       -0.96422877783777       -0.78650286784355
H           -3.57576240782143       -0.94171551357574       -2.61200885958953
H           -3.08914837528336       -2.60544102549115       -2.19967962643968
H           -4.70593191181051       -2.28379342653634       -2.85575842952969
