 xtb: 6.7.1 (edcfbbe)
          04092505213D

 41 40  0     0  0            999 V2000
    1.3992   -0.5038   -2.9867 C   0  0  0  0  0  0  0  0  0  0  0  0
    2.4435    0.2297   -2.1689 C   0  0  0  0  0  0  0  0  0  0  0  0
    2.8460   -0.5582   -1.0352 O   0  0  0  0  0  0  0  0  0  0  0  0
    2.3190   -0.3334    0.4500 P   0  0  0  0  0  0  0  0  0  0  0  0
    2.3774    1.5298    1.0732 S   0  0  0  0  0  0  0  0  0  0  0  0
    3.2540   -1.3295    1.2469 O   0  0  0  0  0  0  0  0  0  0  0  0
    4.6339   -1.0087    1.5361 C   0  0  0  0  0  0  0  0  0  0  0  0
    5.0447   -1.7851    2.7702 C   0  0  0  0  0  0  0  0  0  0  0  0
    0.5221   -1.4055    0.6333 S   0  0  0  0  0  0  0  0  0  0  0  0
   -0.3610   -0.2932    1.7899 C   0  0  0  0  0  0  0  0  0  0  0  0
   -2.1295   -0.2518    1.4572 S   0  0  0  0  0  0  0  0  0  0  0  0
   -2.0420    0.4982   -0.5412 P   0  0  0  0  0  0  0  0  0  0  0  0
   -0.6628    1.8290   -0.9330 S   0  0  0  0  0  0  0  0  0  0  0  0
   -3.5382    0.9537   -0.8243 O   0  0  0  0  0  0  0  0  0  0  0  0
   -4.0281    2.2692   -0.5085 C   0  0  0  0  0  0  0  0  0  0  0  0
   -4.0459    2.5388    0.9820 C   0  0  0  0  0  0  0  0  0  0  0  0
   -1.8910   -0.7788   -1.4530 O   0  0  0  0  0  0  0  0  0  0  0  0
   -2.7797   -1.9230   -1.3991 C   0  0  0  0  0  0  0  0  0  0  0  0
   -3.8485   -1.8224   -2.4677 C   0  0  0  0  0  0  0  0  0  0  0  0
    0.4720   -0.5998   -2.4248 H   0  0  0  0  0  0  0  0  0  0  0  0
    1.1990    0.0605   -3.8919 H   0  0  0  0  0  0  0  0  0  0  0  0
    1.7594   -1.4952   -3.2464 H   0  0  0  0  0  0  0  0  0  0  0  0
    2.0675    1.1983   -1.8223 H   0  0  0  0  0  0  0  0  0  0  0  0
    3.3598    0.3815   -2.7427 H   0  0  0  0  0  0  0  0  0  0  0  0
    5.2314   -1.2892    0.6658 H   0  0  0  0  0  0  0  0  0  0  0  0
    4.7144    0.0722    1.6949 H   0  0  0  0  0  0  0  0  0  0  0  0
    4.9055   -2.8487    2.6004 H   0  0  0  0  0  0  0  0  0  0  0  0
    6.0897   -1.5864    2.9843 H   0  0  0  0  0  0  0  0  0  0  0  0
    4.4400   -1.4820    3.6202 H   0  0  0  0  0  0  0  0  0  0  0  0
    0.0626    0.7103    1.6871 H   0  0  0  0  0  0  0  0  0  0  0  0
   -0.2496   -0.6668    2.8046 H   0  0  0  0  0  0  0  0  0  0  0  0
   -3.4012    3.0027   -1.0249 H   0  0  0  0  0  0  0  0  0  0  0  0
   -5.0341    2.2791   -0.9304 H   0  0  0  0  0  0  0  0  0  0  0  0
   -4.5512    3.4810    1.1686 H   0  0  0  0  0  0  0  0  0  0  0  0
   -4.5638    1.7395    1.5060 H   0  0  0  0  0  0  0  0  0  0  0  0
   -3.0276    2.6064    1.3620 H   0  0  0  0  0  0  0  0  0  0  0  0
   -2.1254   -2.7811   -1.5637 H   0  0  0  0  0  0  0  0  0  0  0  0
   -3.2204   -1.9825   -0.4003 H   0  0  0  0  0  0  0  0  0  0  0  0
   -4.4868   -0.9629   -2.2826 H   0  0  0  0  0  0  0  0  0  0  0  0
   -3.3887   -1.7142   -3.4462 H   0  0  0  0  0  0  0  0  0  0  0  0
   -4.4498   -2.7259   -2.4520 H   0  0  0  0  0  0  0  0  0  0  0  0
  1  2  1  0  0  0  0
  2  3  1  0  0  0  0
  3  4  2  0  0  0  0
  4  5  2  0  0  0  0
  4  6  2  0  0  0  0
  6  7  1  0  0  0  0
  7  8  1  0  0  0  0
  4  9  1  0  0  0  0
  9 10  1  0  0  0  0
 10 11  1  0  0  0  0
 11 12  1  0  0  0  0
 12 13  2  0  0  0  0
 12 14  2  0  0  0  0
 14 15  1  0  0  0  0
 15 16  1  0  0  0  0
 12 17  2  0  0  0  0
 17 18  1  0  0  0  0
 18 19  1  0  0  0  0
  1 20  1  0  0  0  0
  1 21  1  0  0  0  0
  1 22  1  0  0  0  0
  2 23  1  0  0  0  0
  2 24  1  0  0  0  0
  7 25  1  0  0  0  0
  7 26  1  0  0  0  0
  8 27  1  0  0  0  0
  8 28  1  0  0  0  0
  8 29  1  0  0  0  0
 10 30  1  0  0  0  0
 10 31  1  0  0  0  0
 15 32  1  0  0  0  0
 15 33  1  0  0  0  0
 16 34  1  0  0  0  0
 16 35  1  0  0  0  0
 16 36  1  0  0  0  0
 18 37  1  0  0  0  0
 18 38  1  0  0  0  0
 19 39  1  0  0  0  0
 19 40  1  0  0  0  0
 19 41  1  0  0  0  0
M  END
