 xtb: 6.7.1 (edcfbbe)
          04092505203D

 41 40  0     0  0            999 V2000
    4.5656   -1.7123   -0.6761 C   0  0  0  0  0  0  0  0  0  0  0  0
    4.6417   -0.2541   -0.2718 C   0  0  0  0  0  0  0  0  0  0  0  0
    3.4874    0.1664    0.4751 O   0  0  0  0  0  0  0  0  0  0  0  0
    2.0416    0.2914   -0.1775 P   0  0  0  0  0  0  0  0  0  0  0  0
    2.0409    0.9562   -2.0256 S   0  0  0  0  0  0  0  0  0  0  0  0
    1.2899    1.1525    0.9191 O   0  0  0  0  0  0  0  0  0  0  0  0
    1.2783    2.5921    0.9066 C   0  0  0  0  0  0  0  0  0  0  0  0
    2.6536    3.1781    1.1426 C   0  0  0  0  0  0  0  0  0  0  0  0
    1.2010   -1.6025    0.1815 S   0  0  0  0  0  0  0  0  0  0  0  0
    0.0061   -1.7110   -1.1971 C   0  0  0  0  0  0  0  0  0  0  0  0
   -1.6953   -1.9390   -0.6378 S   0  0  0  0  0  0  0  0  0  0  0  0
   -2.0142    0.0128    0.1399 P   0  0  0  0  0  0  0  0  0  0  0  0
   -1.4338    1.5000   -0.9912 S   0  0  0  0  0  0  0  0  0  0  0  0
   -1.3061    0.0386    1.5478 O   0  0  0  0  0  0  0  0  0  0  0  0
   -1.4543   -0.9705    2.5774 C   0  0  0  0  0  0  0  0  0  0  0  0
   -2.6108   -0.6493    3.5006 C   0  0  0  0  0  0  0  0  0  0  0  0
   -3.5584    0.0153    0.5164 O   0  0  0  0  0  0  0  0  0  0  0  0
   -4.5875    0.3714   -0.4242 C   0  0  0  0  0  0  0  0  0  0  0  0
   -4.7243   -0.6425   -1.5413 C   0  0  0  0  0  0  0  0  0  0  0  0
    4.3567   -2.3348    0.1901 H   0  0  0  0  0  0  0  0  0  0  0  0
    3.7739   -1.8531   -1.4106 H   0  0  0  0  0  0  0  0  0  0  0  0
    5.5112   -2.0108   -1.1173 H   0  0  0  0  0  0  0  0  0  0  0  0
    4.7304    0.3840   -1.1570 H   0  0  0  0  0  0  0  0  0  0  0  0
    5.4741   -0.0668    0.4079 H   0  0  0  0  0  0  0  0  0  0  0  0
    0.8684    2.9259   -0.0530 H   0  0  0  0  0  0  0  0  0  0  0  0
    0.5796    2.8499    1.7043 H   0  0  0  0  0  0  0  0  0  0  0  0
    3.0877    2.7628    2.0484 H   0  0  0  0  0  0  0  0  0  0  0  0
    3.3043    2.9482    0.2997 H   0  0  0  0  0  0  0  0  0  0  0  0
    2.5700    4.2562    1.2391 H   0  0  0  0  0  0  0  0  0  0  0  0
    0.2490   -2.5932   -1.7836 H   0  0  0  0  0  0  0  0  0  0  0  0
    0.0834   -0.8022   -1.8005 H   0  0  0  0  0  0  0  0  0  0  0  0
   -1.5870   -1.9462    2.1010 H   0  0  0  0  0  0  0  0  0  0  0  0
   -0.4985   -0.9484    3.1049 H   0  0  0  0  0  0  0  0  0  0  0  0
   -2.4896    0.3458    3.9199 H   0  0  0  0  0  0  0  0  0  0  0  0
   -3.5508   -0.6896    2.9573 H   0  0  0  0  0  0  0  0  0  0  0  0
   -2.6301   -1.3775    4.3055 H   0  0  0  0  0  0  0  0  0  0  0  0
   -5.4900    0.4218    0.1867 H   0  0  0  0  0  0  0  0  0  0  0  0
   -4.3567    1.3619   -0.8284 H   0  0  0  0  0  0  0  0  0  0  0  0
   -4.8208   -1.6454   -1.1332 H   0  0  0  0  0  0  0  0  0  0  0  0
   -5.6037   -0.4062   -2.1318 H   0  0  0  0  0  0  0  0  0  0  0  0
   -3.8484   -0.6083   -2.1871 H   0  0  0  0  0  0  0  0  0  0  0  0
  1  2  1  0  0  0  0
  2  3  1  0  0  0  0
  3  4  2  0  0  0  0
  4  5  2  0  0  0  0
  4  6  2  0  0  0  0
  6  7  1  0  0  0  0
  7  8  1  0  0  0  0
  4  9  1  0  0  0  0
  9 10  1  0  0  0  0
 10 11  1  0  0  0  0
 11 12  1  0  0  0  0
 12 13  2  0  0  0  0
 12 14  2  0  0  0  0
 14 15  1  0  0  0  0
 15 16  1  0  0  0  0
 12 17  2  0  0  0  0
 17 18  1  0  0  0  0
 18 19  1  0  0  0  0
  1 20  1  0  0  0  0
  1 21  1  0  0  0  0
  1 22  1  0  0  0  0
  2 23  1  0  0  0  0
  2 24  1  0  0  0  0
  7 25  1  0  0  0  0
  7 26  1  0  0  0  0
  8 27  1  0  0  0  0
  8 28  1  0  0  0  0
  8 29  1  0  0  0  0
 10 30  1  0  0  0  0
 10 31  1  0  0  0  0
 15 32  1  0  0  0  0
 15 33  1  0  0  0  0
 16 34  1  0  0  0  0
 16 35  1  0  0  0  0
 16 36  1  0  0  0  0
 18 37  1  0  0  0  0
 18 38  1  0  0  0  0
 19 39  1  0  0  0  0
 19 40  1  0  0  0  0
 19 41  1  0  0  0  0
M  END
