 xtb: 6.7.1 (edcfbbe)
          04092505203D

 41 40  0     0  0            999 V2000
    2.3880   -2.9485   -2.1857 C   0  0  0  0  0  0  0  0  0  0  0  0
    1.4792   -2.5657   -1.0366 C   0  0  0  0  0  0  0  0  0  0  0  0
    1.1860   -1.1437   -1.0695 O   0  0  0  0  0  0  0  0  0  0  0  0
    1.9263   -0.0881   -0.1596 P   0  0  0  0  0  0  0  0  0  0  0  0
    1.3492    1.7448   -0.5324 S   0  0  0  0  0  0  0  0  0  0  0  0
    3.4572   -0.3995   -0.4515 O   0  0  0  0  0  0  0  0  0  0  0  0
    4.5130    0.5244   -0.1345 C   0  0  0  0  0  0  0  0  0  0  0  0
    4.6638    0.7393    1.3573 C   0  0  0  0  0  0  0  0  0  0  0  0
    1.6545   -0.7938    1.8299 S   0  0  0  0  0  0  0  0  0  0  0  0
   -0.0353   -0.2064    2.0735 C   0  0  0  0  0  0  0  0  0  0  0  0
   -1.2463   -1.0435    1.0010 S   0  0  0  0  0  0  0  0  0  0  0  0
   -2.0966    0.6329   -0.0026 P   0  0  0  0  0  0  0  0  0  0  0  0
   -1.8968    2.3663    0.8772 S   0  0  0  0  0  0  0  0  0  0  0  0
   -3.6039    0.1670   -0.2313 O   0  0  0  0  0  0  0  0  0  0  0  0
   -4.6517    0.4163    0.7234 C   0  0  0  0  0  0  0  0  0  0  0  0
   -4.4426   -0.3281    2.0260 C   0  0  0  0  0  0  0  0  0  0  0  0
   -1.5509    0.5885   -1.4819 O   0  0  0  0  0  0  0  0  0  0  0  0
   -1.8086   -0.5358   -2.3617 C   0  0  0  0  0  0  0  0  0  0  0  0
   -0.9225   -0.3811   -3.5789 C   0  0  0  0  0  0  0  0  0  0  0  0
    3.3458   -2.4438   -2.0914 H   0  0  0  0  0  0  0  0  0  0  0  0
    2.5454   -4.0224   -2.1672 H   0  0  0  0  0  0  0  0  0  0  0  0
    1.9353   -2.6690   -3.1330 H   0  0  0  0  0  0  0  0  0  0  0  0
    1.9330   -2.8117   -0.0729 H   0  0  0  0  0  0  0  0  0  0  0  0
    0.5046   -3.0516   -1.1157 H   0  0  0  0  0  0  0  0  0  0  0  0
    5.4014    0.0607   -0.5659 H   0  0  0  0  0  0  0  0  0  0  0  0
    4.3036    1.4720   -0.6401 H   0  0  0  0  0  0  0  0  0  0  0  0
    3.7985    1.2747    1.7456 H   0  0  0  0  0  0  0  0  0  0  0  0
    4.7473   -0.2146    1.8720 H   0  0  0  0  0  0  0  0  0  0  0  0
    5.5540    1.3310    1.5452 H   0  0  0  0  0  0  0  0  0  0  0  0
   -0.0909    0.8692    1.8817 H   0  0  0  0  0  0  0  0  0  0  0  0
   -0.2840   -0.4333    3.1070 H   0  0  0  0  0  0  0  0  0  0  0  0
   -4.7024    1.4946    0.9021 H   0  0  0  0  0  0  0  0  0  0  0  0
   -5.5527    0.0813    0.2075 H   0  0  0  0  0  0  0  0  0  0  0  0
   -4.2702   -1.3846    1.8373 H   0  0  0  0  0  0  0  0  0  0  0  0
   -3.5838    0.0836    2.5540 H   0  0  0  0  0  0  0  0  0  0  0  0
   -5.3245   -0.2104    2.6474 H   0  0  0  0  0  0  0  0  0  0  0  0
   -1.5863   -1.4568   -1.8146 H   0  0  0  0  0  0  0  0  0  0  0  0
   -2.8678   -0.5190   -2.6259 H   0  0  0  0  0  0  0  0  0  0  0  0
    0.1211   -0.3671   -3.2754 H   0  0  0  0  0  0  0  0  0  0  0  0
   -1.0958   -1.2122   -4.2548 H   0  0  0  0  0  0  0  0  0  0  0  0
   -1.1466    0.5534   -4.0855 H   0  0  0  0  0  0  0  0  0  0  0  0
  1  2  1  0  0  0  0
  2  3  1  0  0  0  0
  3  4  2  0  0  0  0
  4  5  2  0  0  0  0
  4  6  2  0  0  0  0
  6  7  1  0  0  0  0
  7  8  1  0  0  0  0
  4  9  1  0  0  0  0
  9 10  1  0  0  0  0
 10 11  1  0  0  0  0
 11 12  1  0  0  0  0
 12 13  2  0  0  0  0
 12 14  2  0  0  0  0
 14 15  1  0  0  0  0
 15 16  1  0  0  0  0
 12 17  2  0  0  0  0
 17 18  1  0  0  0  0
 18 19  1  0  0  0  0
  1 20  1  0  0  0  0
  1 21  1  0  0  0  0
  1 22  1  0  0  0  0
  2 23  1  0  0  0  0
  2 24  1  0  0  0  0
  7 25  1  0  0  0  0
  7 26  1  0  0  0  0
  8 27  1  0  0  0  0
  8 28  1  0  0  0  0
  8 29  1  0  0  0  0
 10 30  1  0  0  0  0
 10 31  1  0  0  0  0
 15 32  1  0  0  0  0
 15 33  1  0  0  0  0
 16 34  1  0  0  0  0
 16 35  1  0  0  0  0
 16 36  1  0  0  0  0
 18 37  1  0  0  0  0
 18 38  1  0  0  0  0
 19 39  1  0  0  0  0
 19 40  1  0  0  0  0
 19 41  1  0  0  0  0
M  END
