 xtb: 6.7.1 (edcfbbe)
          04092505213D

 41 40  0     0  0            999 V2000
    1.3247   -1.6879   -2.1914 C   0  0  0  0  0  0  0  0  0  0  0  0
    2.5598   -0.8191   -2.0720 C   0  0  0  0  0  0  0  0  0  0  0  0
    2.4745    0.1222   -0.9772 O   0  0  0  0  0  0  0  0  0  0  0  0
    2.4734   -0.2114    0.5661 P   0  0  0  0  0  0  0  0  0  0  0  0
    2.9666    1.4091    1.5515 S   0  0  0  0  0  0  0  0  0  0  0  0
    3.4459   -1.4658    0.6193 O   0  0  0  0  0  0  0  0  0  0  0  0
    3.5450   -2.3909    1.7195 C   0  0  0  0  0  0  0  0  0  0  0  0
    3.8685   -1.7084    3.0316 C   0  0  0  0  0  0  0  0  0  0  0  0
    0.5860   -1.0259    1.1303 S   0  0  0  0  0  0  0  0  0  0  0  0
   -0.2433    0.5542    1.3776 C   0  0  0  0  0  0  0  0  0  0  0  0
   -0.4434    1.5091   -0.1633 S   0  0  0  0  0  0  0  0  0  0  0  0
   -2.2552    0.6461   -0.8104 P   0  0  0  0  0  0  0  0  0  0  0  0
   -2.9774    1.2519   -2.5283 S   0  0  0  0  0  0  0  0  0  0  0  0
   -3.2835    0.7716    0.4105 O   0  0  0  0  0  0  0  0  0  0  0  0
   -4.2005    1.8716    0.5124 C   0  0  0  0  0  0  0  0  0  0  0  0
   -3.4893    3.1688    0.8414 C   0  0  0  0  0  0  0  0  0  0  0  0
   -1.8552   -0.8816   -0.7142 O   0  0  0  0  0  0  0  0  0  0  0  0
   -2.8214   -1.9227   -0.9981 C   0  0  0  0  0  0  0  0  0  0  0  0
   -2.0786   -3.2419   -1.0143 C   0  0  0  0  0  0  0  0  0  0  0  0
    1.2445   -2.3594   -1.3392 H   0  0  0  0  0  0  0  0  0  0  0  0
    0.4304   -1.0683   -2.2373 H   0  0  0  0  0  0  0  0  0  0  0  0
    1.3940   -2.2750   -3.1022 H   0  0  0  0  0  0  0  0  0  0  0  0
    2.6787   -0.1734   -2.9440 H   0  0  0  0  0  0  0  0  0  0  0  0
    3.4558   -1.4270   -1.9338 H   0  0  0  0  0  0  0  0  0  0  0  0
    2.6010   -2.9378    1.7911 H   0  0  0  0  0  0  0  0  0  0  0  0
    4.3453   -3.0668    1.4130 H   0  0  0  0  0  0  0  0  0  0  0  0
    4.0143   -2.4586    3.8020 H   0  0  0  0  0  0  0  0  0  0  0  0
    4.7710   -1.1095    2.9360 H   0  0  0  0  0  0  0  0  0  0  0  0
    3.0521   -1.0504    3.3248 H   0  0  0  0  0  0  0  0  0  0  0  0
    0.3680    1.1764    2.0323 H   0  0  0  0  0  0  0  0  0  0  0  0
   -1.2183    0.3456    1.8101 H   0  0  0  0  0  0  0  0  0  0  0  0
   -4.7391    1.9612   -0.4365 H   0  0  0  0  0  0  0  0  0  0  0  0
   -4.8879    1.5737    1.3052 H   0  0  0  0  0  0  0  0  0  0  0  0
   -4.2218    3.9592    0.9694 H   0  0  0  0  0  0  0  0  0  0  0  0
   -2.9072    3.0674    1.7541 H   0  0  0  0  0  0  0  0  0  0  0  0
   -2.8186    3.4394    0.0257 H   0  0  0  0  0  0  0  0  0  0  0  0
   -3.5838   -1.9012   -0.2160 H   0  0  0  0  0  0  0  0  0  0  0  0
   -3.2908   -1.7040   -1.9627 H   0  0  0  0  0  0  0  0  0  0  0  0
   -1.3547   -3.2560   -1.8235 H   0  0  0  0  0  0  0  0  0  0  0  0
   -1.5566   -3.3793   -0.0714 H   0  0  0  0  0  0  0  0  0  0  0  0
   -2.7909   -4.0480   -1.1558 H   0  0  0  0  0  0  0  0  0  0  0  0
  1  2  1  0  0  0  0
  2  3  1  0  0  0  0
  3  4  2  0  0  0  0
  4  5  2  0  0  0  0
  4  6  2  0  0  0  0
  6  7  1  0  0  0  0
  7  8  1  0  0  0  0
  4  9  1  0  0  0  0
  9 10  1  0  0  0  0
 10 11  1  0  0  0  0
 11 12  1  0  0  0  0
 12 13  2  0  0  0  0
 12 14  1  0  0  0  0
 14 15  1  0  0  0  0
 15 16  1  0  0  0  0
 12 17  2  0  0  0  0
 17 18  1  0  0  0  0
 18 19  1  0  0  0  0
  1 20  1  0  0  0  0
  1 21  1  0  0  0  0
  1 22  1  0  0  0  0
  2 23  1  0  0  0  0
  2 24  1  0  0  0  0
  7 25  1  0  0  0  0
  7 26  1  0  0  0  0
  8 27  1  0  0  0  0
  8 28  1  0  0  0  0
  8 29  1  0  0  0  0
 10 30  1  0  0  0  0
 10 31  1  0  0  0  0
 15 32  1  0  0  0  0
 15 33  1  0  0  0  0
 16 34  1  0  0  0  0
 16 35  1  0  0  0  0
 16 36  1  0  0  0  0
 18 37  1  0  0  0  0
 18 38  1  0  0  0  0
 19 39  1  0  0  0  0
 19 40  1  0  0  0  0
 19 41  1  0  0  0  0
M  END
