 xtb: 6.7.1 (edcfbbe)
          04092505213D

 41 40  0     0  0            999 V2000
    5.2378   -1.3406   -2.0653 C   0  0  0  0  0  0  0  0  0  0  0  0
    3.7446   -1.3032   -1.8096 C   0  0  0  0  0  0  0  0  0  0  0  0
    3.5211   -0.5541   -0.6003 O   0  0  0  0  0  0  0  0  0  0  0  0
    2.0609   -0.0771   -0.1749 P   0  0  0  0  0  0  0  0  0  0  0  0
    1.1210    0.8841   -1.6073 S   0  0  0  0  0  0  0  0  0  0  0  0
    2.3992    0.6683    1.1712 O   0  0  0  0  0  0  0  0  0  0  0  0
    2.6069    2.0926    1.2428 C   0  0  0  0  0  0  0  0  0  0  0  0
    3.8623    2.5136    0.5095 C   0  0  0  0  0  0  0  0  0  0  0  0
    1.1588   -1.8552    0.5248 S   0  0  0  0  0  0  0  0  0  0  0  0
   -0.2780   -1.9570   -0.6003 C   0  0  0  0  0  0  0  0  0  0  0  0
   -1.8837   -1.8583    0.2296 S   0  0  0  0  0  0  0  0  0  0  0  0
   -2.0440    0.2492    0.4940 P   0  0  0  0  0  0  0  0  0  0  0  0
   -0.7101    1.1257    1.6274 S   0  0  0  0  0  0  0  0  0  0  0  0
   -3.5370    0.3793    1.0190 O   0  0  0  0  0  0  0  0  0  0  0  0
   -3.9069   -0.0151    2.3566 C   0  0  0  0  0  0  0  0  0  0  0  0
   -5.2678    0.5801    2.6545 C   0  0  0  0  0  0  0  0  0  0  0  0
   -2.1293    0.8812   -0.9394 O   0  0  0  0  0  0  0  0  0  0  0  0
   -3.1217    0.4852   -1.9262 C   0  0  0  0  0  0  0  0  0  0  0  0
   -2.5352    0.7313   -3.3002 C   0  0  0  0  0  0  0  0  0  0  0  0
    5.7456   -1.7936   -1.2189 H   0  0  0  0  0  0  0  0  0  0  0  0
    5.4316   -1.9258   -2.9581 H   0  0  0  0  0  0  0  0  0  0  0  0
    5.6191   -0.3333   -2.2060 H   0  0  0  0  0  0  0  0  0  0  0  0
    3.3395   -2.3099   -1.6692 H   0  0  0  0  0  0  0  0  0  0  0  0
    3.2078   -0.8105   -2.6275 H   0  0  0  0  0  0  0  0  0  0  0  0
    1.7216    2.5931    0.8363 H   0  0  0  0  0  0  0  0  0  0  0  0
    2.6681    2.2895    2.3139 H   0  0  0  0  0  0  0  0  0  0  0  0
    3.7504    2.3172   -0.5565 H   0  0  0  0  0  0  0  0  0  0  0  0
    4.0262    3.5762    0.6587 H   0  0  0  0  0  0  0  0  0  0  0  0
    4.7168    1.9554    0.8828 H   0  0  0  0  0  0  0  0  0  0  0  0
   -0.2560   -2.9355   -1.0719 H   0  0  0  0  0  0  0  0  0  0  0  0
   -0.1961   -1.1513   -1.3361 H   0  0  0  0  0  0  0  0  0  0  0  0
   -3.9297   -1.1074    2.3942 H   0  0  0  0  0  0  0  0  0  0  0  0
   -3.1441    0.3523    3.0511 H   0  0  0  0  0  0  0  0  0  0  0  0
   -5.5737    0.2856    3.6529 H   0  0  0  0  0  0  0  0  0  0  0  0
   -5.2211    1.6640    2.5983 H   0  0  0  0  0  0  0  0  0  0  0  0
   -5.9952    0.2200    1.9331 H   0  0  0  0  0  0  0  0  0  0  0  0
   -3.3685   -0.5693   -1.7734 H   0  0  0  0  0  0  0  0  0  0  0  0
   -4.0096    1.0944   -1.7513 H   0  0  0  0  0  0  0  0  0  0  0  0
   -2.2827    1.7816   -3.4145 H   0  0  0  0  0  0  0  0  0  0  0  0
   -1.6273    0.1494   -3.4364 H   0  0  0  0  0  0  0  0  0  0  0  0
   -3.2624    0.4483   -4.0541 H   0  0  0  0  0  0  0  0  0  0  0  0
  1  2  1  0  0  0  0
  2  3  1  0  0  0  0
  3  4  2  0  0  0  0
  4  5  2  0  0  0  0
  4  6  2  0  0  0  0
  6  7  1  0  0  0  0
  7  8  1  0  0  0  0
  4  9  1  0  0  0  0
  9 10  1  0  0  0  0
 10 11  1  0  0  0  0
 11 12  1  0  0  0  0
 12 13  2  0  0  0  0
 12 14  2  0  0  0  0
 14 15  1  0  0  0  0
 15 16  1  0  0  0  0
 12 17  2  0  0  0  0
 17 18  1  0  0  0  0
 18 19  1  0  0  0  0
  1 20  1  0  0  0  0
  1 21  1  0  0  0  0
  1 22  1  0  0  0  0
  2 23  1  0  0  0  0
  2 24  1  0  0  0  0
  7 25  1  0  0  0  0
  7 26  1  0  0  0  0
  8 27  1  0  0  0  0
  8 28  1  0  0  0  0
  8 29  1  0  0  0  0
 10 30  1  0  0  0  0
 10 31  1  0  0  0  0
 15 32  1  0  0  0  0
 15 33  1  0  0  0  0
 16 34  1  0  0  0  0
 16 35  1  0  0  0  0
 16 36  1  0  0  0  0
 18 37  1  0  0  0  0
 18 38  1  0  0  0  0
 19 39  1  0  0  0  0
 19 40  1  0  0  0  0
 19 41  1  0  0  0  0
M  END
