 xtb: 6.7.1 (edcfbbe)
          04092505203D

 41 40  0     0  0            999 V2000
    3.7061    1.7556   -1.7112 C   0  0  0  0  0  0  0  0  0  0  0  0
    2.4032    1.0746   -2.0696 C   0  0  0  0  0  0  0  0  0  0  0  0
    2.2384   -0.1781   -1.3766 O   0  0  0  0  0  0  0  0  0  0  0  0
    2.1154   -0.2898    0.1965 P   0  0  0  0  0  0  0  0  0  0  0  0
    1.1464    1.1600    1.1091 S   0  0  0  0  0  0  0  0  0  0  0  0
    3.6301   -0.4261    0.6553 O   0  0  0  0  0  0  0  0  0  0  0  0
    4.0420   -0.2651    2.0224 C   0  0  0  0  0  0  0  0  0  0  0  0
    3.5239   -1.3822    2.9052 C   0  0  0  0  0  0  0  0  0  0  0  0
    1.4182   -2.2721    0.3203 S   0  0  0  0  0  0  0  0  0  0  0  0
   -0.2422   -2.0923   -0.3816 C   0  0  0  0  0  0  0  0  0  0  0  0
   -1.4922   -1.5009    0.8148 S   0  0  0  0  0  0  0  0  0  0  0  0
   -2.1045    0.2915   -0.1230 P   0  0  0  0  0  0  0  0  0  0  0  0
   -1.1572    0.8239   -1.7612 S   0  0  0  0  0  0  0  0  0  0  0  0
   -2.0711    1.3252    1.0703 O   0  0  0  0  0  0  0  0  0  0  0  0
   -1.9200    2.7424    0.8746 C   0  0  0  0  0  0  0  0  0  0  0  0
   -3.1707    3.3521    0.2786 C   0  0  0  0  0  0  0  0  0  0  0  0
   -3.6824    0.1160   -0.2692 O   0  0  0  0  0  0  0  0  0  0  0  0
   -4.3572   -1.0123   -0.8501 C   0  0  0  0  0  0  0  0  0  0  0  0
   -3.9373   -1.2829   -2.2808 C   0  0  0  0  0  0  0  0  0  0  0  0
    3.8341    2.6350   -2.3346 H   0  0  0  0  0  0  0  0  0  0  0  0
    3.6885    2.0620   -0.6658 H   0  0  0  0  0  0  0  0  0  0  0  0
    4.5391    1.0746   -1.8653 H   0  0  0  0  0  0  0  0  0  0  0  0
    2.3638    0.7923   -3.1226 H   0  0  0  0  0  0  0  0  0  0  0  0
    1.5467    1.7152   -1.8363 H   0  0  0  0  0  0  0  0  0  0  0  0
    5.1315   -0.2633    1.9698 H   0  0  0  0  0  0  0  0  0  0  0  0
    3.6831    0.7055    2.3806 H   0  0  0  0  0  0  0  0  0  0  0  0
    3.9488   -1.2841    3.8989 H   0  0  0  0  0  0  0  0  0  0  0  0
    2.4380   -1.3242    2.9784 H   0  0  0  0  0  0  0  0  0  0  0  0
    3.7934   -2.3492    2.4880 H   0  0  0  0  0  0  0  0  0  0  0  0
   -0.5353   -3.0915   -0.6917 H   0  0  0  0  0  0  0  0  0  0  0  0
   -0.2082   -1.4003   -1.2280 H   0  0  0  0  0  0  0  0  0  0  0  0
   -1.7082    3.1238    1.8743 H   0  0  0  0  0  0  0  0  0  0  0  0
   -1.0501    2.9175    0.2328 H   0  0  0  0  0  0  0  0  0  0  0  0
   -3.0464    4.4276    0.2008 H   0  0  0  0  0  0  0  0  0  0  0  0
   -3.3418    2.9386   -0.7150 H   0  0  0  0  0  0  0  0  0  0  0  0
   -4.0302    3.1271    0.9043 H   0  0  0  0  0  0  0  0  0  0  0  0
   -4.1691   -1.8855   -0.2183 H   0  0  0  0  0  0  0  0  0  0  0  0
   -5.4113   -0.7353   -0.7913 H   0  0  0  0  0  0  0  0  0  0  0  0
   -4.5483   -2.0815   -2.6890 H   0  0  0  0  0  0  0  0  0  0  0  0
   -4.0603   -0.3893   -2.8882 H   0  0  0  0  0  0  0  0  0  0  0  0
   -2.8908   -1.5817   -2.3188 H   0  0  0  0  0  0  0  0  0  0  0  0
  1  2  1  0  0  0  0
  2  3  1  0  0  0  0
  3  4  2  0  0  0  0
  4  5  2  0  0  0  0
  4  6  2  0  0  0  0
  6  7  1  0  0  0  0
  7  8  1  0  0  0  0
  4  9  1  0  0  0  0
  9 10  1  0  0  0  0
 10 11  1  0  0  0  0
 11 12  1  0  0  0  0
 12 13  2  0  0  0  0
 12 14  2  0  0  0  0
 14 15  1  0  0  0  0
 15 16  1  0  0  0  0
 12 17  2  0  0  0  0
 17 18  1  0  0  0  0
 18 19  1  0  0  0  0
  1 20  1  0  0  0  0
  1 21  1  0  0  0  0
  1 22  1  0  0  0  0
  2 23  1  0  0  0  0
  2 24  1  0  0  0  0
  7 25  1  0  0  0  0
  7 26  1  0  0  0  0
  8 27  1  0  0  0  0
  8 28  1  0  0  0  0
  8 29  1  0  0  0  0
 10 30  1  0  0  0  0
 10 31  1  0  0  0  0
 15 32  1  0  0  0  0
 15 33  1  0  0  0  0
 16 34  1  0  0  0  0
 16 35  1  0  0  0  0
 16 36  1  0  0  0  0
 18 37  1  0  0  0  0
 18 38  1  0  0  0  0
 19 39  1  0  0  0  0
 19 40  1  0  0  0  0
 19 41  1  0  0  0  0
M  END
