 xtb: 6.7.1 (edcfbbe)
          04092505203D

 41 40  0     0  0            999 V2000
    3.6835   -1.6179   -2.4332 C   0  0  0  0  0  0  0  0  0  0  0  0
    4.2067   -0.3682   -1.7536 C   0  0  0  0  0  0  0  0  0  0  0  0
    3.7358   -0.2446   -0.4026 O   0  0  0  0  0  0  0  0  0  0  0  0
    2.2118    0.0418   -0.0290 P   0  0  0  0  0  0  0  0  0  0  0  0
    1.3416    1.3008   -1.2618 S   0  0  0  0  0  0  0  0  0  0  0  0
    2.3705    0.4298    1.4925 O   0  0  0  0  0  0  0  0  0  0  0  0
    2.5417    1.7856    1.9469 C   0  0  0  0  0  0  0  0  0  0  0  0
    3.8362    2.3963    1.4534 C   0  0  0  0  0  0  0  0  0  0  0  0
    1.3402   -1.8673    0.1954 S   0  0  0  0  0  0  0  0  0  0  0  0
    0.0206   -1.7666   -1.0658 C   0  0  0  0  0  0  0  0  0  0  0  0
   -1.6566   -1.9005   -0.3974 S   0  0  0  0  0  0  0  0  0  0  0  0
   -1.9537    0.0887    0.3075 P   0  0  0  0  0  0  0  0  0  0  0  0
   -0.7873    0.7347    1.7406 S   0  0  0  0  0  0  0  0  0  0  0  0
   -3.4929    0.0434    0.6941 O   0  0  0  0  0  0  0  0  0  0  0  0
   -3.9489   -0.6649    1.8649 C   0  0  0  0  0  0  0  0  0  0  0  0
   -5.3620   -0.2075    2.1639 C   0  0  0  0  0  0  0  0  0  0  0  0
   -1.9157    1.0197   -0.9559 O   0  0  0  0  0  0  0  0  0  0  0  0
   -2.7433    0.8317   -2.1334 C   0  0  0  0  0  0  0  0  0  0  0  0
   -3.9998    1.6720   -2.0447 C   0  0  0  0  0  0  0  0  0  0  0  0
    3.8744   -2.4913   -1.8148 H   0  0  0  0  0  0  0  0  0  0  0  0
    2.6107   -1.5288   -2.5979 H   0  0  0  0  0  0  0  0  0  0  0  0
    4.1782   -1.7381   -3.3916 H   0  0  0  0  0  0  0  0  0  0  0  0
    3.9032    0.5261   -2.3078 H   0  0  0  0  0  0  0  0  0  0  0  0
    5.2923   -0.3910   -1.6499 H   0  0  0  0  0  0  0  0  0  0  0  0
    1.6761    2.3702    1.6176 H   0  0  0  0  0  0  0  0  0  0  0  0
    2.5182    1.6954    3.0339 H   0  0  0  0  0  0  0  0  0  0  0  0
    4.6755    1.7600    1.7221 H   0  0  0  0  0  0  0  0  0  0  0  0
    3.8070    2.5043    0.3695 H   0  0  0  0  0  0  0  0  0  0  0  0
    3.9631    3.3763    1.9025 H   0  0  0  0  0  0  0  0  0  0  0  0
    0.1328   -2.6191   -1.7301 H   0  0  0  0  0  0  0  0  0  0  0  0
    0.1233   -0.8179   -1.6011 H   0  0  0  0  0  0  0  0  0  0  0  0
   -3.9111   -1.7361    1.6500 H   0  0  0  0  0  0  0  0  0  0  0  0
   -3.2687   -0.4410    2.6934 H   0  0  0  0  0  0  0  0  0  0  0  0
   -5.7261   -0.7312    3.0415 H   0  0  0  0  0  0  0  0  0  0  0  0
   -5.3756    0.8622    2.3537 H   0  0  0  0  0  0  0  0  0  0  0  0
   -6.0100   -0.4259    1.3203 H   0  0  0  0  0  0  0  0  0  0  0  0
   -2.1051    1.1513   -2.9597 H   0  0  0  0  0  0  0  0  0  0  0  0
   -2.9833   -0.2305   -2.2321 H   0  0  0  0  0  0  0  0  0  0  0  0
   -4.6130    1.3451   -1.2094 H   0  0  0  0  0  0  0  0  0  0  0  0
   -3.7389    2.7170   -1.9005 H   0  0  0  0  0  0  0  0  0  0  0  0
   -4.5614    1.5662   -2.9676 H   0  0  0  0  0  0  0  0  0  0  0  0
  1  2  1  0  0  0  0
  2  3  1  0  0  0  0
  3  4  2  0  0  0  0
  4  5  2  0  0  0  0
  4  6  2  0  0  0  0
  6  7  1  0  0  0  0
  7  8  1  0  0  0  0
  4  9  1  0  0  0  0
  9 10  1  0  0  0  0
 10 11  1  0  0  0  0
 11 12  1  0  0  0  0
 12 13  2  0  0  0  0
 12 14  2  0  0  0  0
 14 15  1  0  0  0  0
 15 16  1  0  0  0  0
 12 17  2  0  0  0  0
 17 18  1  0  0  0  0
 18 19  1  0  0  0  0
  1 20  1  0  0  0  0
  1 21  1  0  0  0  0
  1 22  1  0  0  0  0
  2 23  1  0  0  0  0
  2 24  1  0  0  0  0
  7 25  1  0  0  0  0
  7 26  1  0  0  0  0
  8 27  1  0  0  0  0
  8 28  1  0  0  0  0
  8 29  1  0  0  0  0
 10 30  1  0  0  0  0
 10 31  1  0  0  0  0
 15 32  1  0  0  0  0
 15 33  1  0  0  0  0
 16 34  1  0  0  0  0
 16 35  1  0  0  0  0
 16 36  1  0  0  0  0
 18 37  1  0  0  0  0
 18 38  1  0  0  0  0
 19 39  1  0  0  0  0
 19 40  1  0  0  0  0
 19 41  1  0  0  0  0
M  END
