 xtb: 6.7.1 (edcfbbe)
          04092505213D

 41 40  0     0  0            999 V2000
    3.0032   -2.9566   -1.9753 C   0  0  0  0  0  0  0  0  0  0  0  0
    3.1103   -2.5747   -0.5127 C   0  0  0  0  0  0  0  0  0  0  0  0
    3.4348   -1.1705   -0.3637 O   0  0  0  0  0  0  0  0  0  0  0  0
    2.3591   -0.0399   -0.0748 P   0  0  0  0  0  0  0  0  0  0  0  0
    3.2522    1.6737    0.1997 S   0  0  0  0  0  0  0  0  0  0  0  0
    1.4657   -0.5913    1.1351 O   0  0  0  0  0  0  0  0  0  0  0  0
    1.8327   -0.3534    2.5120 C   0  0  0  0  0  0  0  0  0  0  0  0
    1.0143    0.7819    3.0924 C   0  0  0  0  0  0  0  0  0  0  0  0
    0.9496   -0.1787   -1.6408 S   0  0  0  0  0  0  0  0  0  0  0  0
    0.3060    1.5077   -1.5073 C   0  0  0  0  0  0  0  0  0  0  0  0
   -0.5878    1.8182    0.0329 S   0  0  0  0  0  0  0  0  0  0  0  0
   -2.1084    0.3616   -0.2795 P   0  0  0  0  0  0  0  0  0  0  0  0
   -2.7031    0.0815   -2.1166 S   0  0  0  0  0  0  0  0  0  0  0  0
   -3.2777    0.8733    0.6530 O   0  0  0  0  0  0  0  0  0  0  0  0
   -3.0978    1.1297    2.0690 C   0  0  0  0  0  0  0  0  0  0  0  0
   -4.4429    1.5355    2.6335 C   0  0  0  0  0  0  0  0  0  0  0  0
   -1.5098   -0.9126    0.4780 O   0  0  0  0  0  0  0  0  0  0  0  0
   -1.4836   -2.2326   -0.0919 C   0  0  0  0  0  0  0  0  0  0  0  0
   -2.8079   -2.9367    0.1244 C   0  0  0  0  0  0  0  0  0  0  0  0
    3.9148   -2.6810   -2.4981 H   0  0  0  0  0  0  0  0  0  0  0  0
    2.8566   -4.0294   -2.0513 H   0  0  0  0  0  0  0  0  0  0  0  0
    2.1636   -2.4483   -2.4449 H   0  0  0  0  0  0  0  0  0  0  0  0
    3.9399   -3.0941   -0.0297 H   0  0  0  0  0  0  0  0  0  0  0  0
    2.1797   -2.7836    0.0208 H   0  0  0  0  0  0  0  0  0  0  0  0
    1.6267   -1.2950    3.0245 H   0  0  0  0  0  0  0  0  0  0  0  0
    2.9027   -0.1301    2.5661 H   0  0  0  0  0  0  0  0  0  0  0  0
   -0.0454    0.5736    2.9723 H   0  0  0  0  0  0  0  0  0  0  0  0
    1.2463    0.8889    4.1470 H   0  0  0  0  0  0  0  0  0  0  0  0
    1.2465    1.7123    2.5785 H   0  0  0  0  0  0  0  0  0  0  0  0
   -0.3645    1.6442   -2.3555 H   0  0  0  0  0  0  0  0  0  0  0  0
    1.1347    2.2152   -1.5324 H   0  0  0  0  0  0  0  0  0  0  0  0
   -2.7222    0.2177    2.5391 H   0  0  0  0  0  0  0  0  0  0  0  0
   -2.3586    1.9281    2.1795 H   0  0  0  0  0  0  0  0  0  0  0  0
   -5.1651    0.7370    2.4896 H   0  0  0  0  0  0  0  0  0  0  0  0
   -4.3370    1.7405    3.6939 H   0  0  0  0  0  0  0  0  0  0  0  0
   -4.8036    2.4269    2.1286 H   0  0  0  0  0  0  0  0  0  0  0  0
   -1.2552   -2.1574   -1.1594 H   0  0  0  0  0  0  0  0  0  0  0  0
   -0.6656   -2.7355    0.4265 H   0  0  0  0  0  0  0  0  0  0  0  0
   -3.5998   -2.3884   -0.3841 H   0  0  0  0  0  0  0  0  0  0  0  0
   -2.7533   -3.9399   -0.2860 H   0  0  0  0  0  0  0  0  0  0  0  0
   -3.0411   -2.9921    1.1843 H   0  0  0  0  0  0  0  0  0  0  0  0
  1  2  1  0  0  0  0
  2  3  1  0  0  0  0
  3  4  2  0  0  0  0
  4  5  2  0  0  0  0
  4  6  1  0  0  0  0
  6  7  1  0  0  0  0
  7  8  1  0  0  0  0
  4  9  1  0  0  0  0
  9 10  1  0  0  0  0
 10 11  1  0  0  0  0
 11 12  1  0  0  0  0
 12 13  2  0  0  0  0
 12 14  2  0  0  0  0
 14 15  1  0  0  0  0
 15 16  1  0  0  0  0
 12 17  1  0  0  0  0
 17 18  1  0  0  0  0
 18 19  1  0  0  0  0
  1 20  1  0  0  0  0
  1 21  1  0  0  0  0
  1 22  1  0  0  0  0
  2 23  1  0  0  0  0
  2 24  1  0  0  0  0
  7 25  1  0  0  0  0
  7 26  1  0  0  0  0
  8 27  1  0  0  0  0
  8 28  1  0  0  0  0
  8 29  1  0  0  0  0
 10 30  1  0  0  0  0
 10 31  1  0  0  0  0
 15 32  1  0  0  0  0
 15 33  1  0  0  0  0
 16 34  1  0  0  0  0
 16 35  1  0  0  0  0
 16 36  1  0  0  0  0
 18 37  1  0  0  0  0
 18 38  1  0  0  0  0
 19 39  1  0  0  0  0
 19 40  1  0  0  0  0
 19 41  1  0  0  0  0
M  END
