 xtb: 6.7.1 (edcfbbe)
          04092507313D

 38 37  0     0  0            999 V2000
    3.4439   -3.1024    0.4246 C   0  0  0  0  0  0  0  0  0  0  0  0
    2.9143   -1.7706    0.9306 C   0  0  0  0  0  0  0  0  0  0  0  0
    2.7133   -0.8466   -0.1568 O   0  0  0  0  0  0  0  0  0  0  0  0
    1.6090   -0.9295   -0.8674 C   0  0  0  0  0  0  0  0  0  0  0  0
    0.7082   -1.7191   -0.6578 O   0  0  0  0  0  0  0  0  0  0  0  0
    1.5730    0.1040   -1.9736 C   0  0  0  0  0  0  0  0  0  0  0  0
    0.3402    0.9996   -1.8233 C   0  0  0  0  0  0  0  0  0  0  0  0
    0.2959    1.7035   -2.6587 H   0  0  0  0  0  0  0  0  0  0  0  0
    0.3482    1.7771   -0.5225 C   0  0  0  0  0  0  0  0  0  0  0  0
   -0.6305    1.8311    0.2034 O   0  0  0  0  0  0  0  0  0  0  0  0
    1.4890    2.3435   -0.2716 O   0  0  0  0  0  0  0  0  0  0  0  0
    1.6425    3.0508    0.9812 C   0  0  0  0  0  0  0  0  0  0  0  0
    3.1175    3.3436    1.1639 C   0  0  0  0  0  0  0  0  0  0  0  0
   -1.2365    0.0779   -1.8978 S   0  0  0  0  0  0  0  0  0  0  0  0
   -1.6331   -0.4187    0.1252 P   0  0  0  0  0  0  0  0  0  0  0  0
   -0.5469   -0.5574    1.7707 S   0  0  0  0  0  0  0  0  0  0  0  0
   -3.0287    0.3173    0.4323 O   0  0  0  0  0  0  0  0  0  0  0  0
   -3.2125    1.4362    1.2952 C   0  0  0  0  0  0  0  0  0  0  0  0
   -2.2197   -1.8399   -0.3235 O   0  0  0  0  0  0  0  0  0  0  0  0
   -2.7597   -2.7700    0.6158 C   0  0  0  0  0  0  0  0  0  0  0  0
    3.6523   -3.7473    1.2718 H   0  0  0  0  0  0  0  0  0  0  0  0
    2.7020   -3.5834   -0.2091 H   0  0  0  0  0  0  0  0  0  0  0  0
    4.3558   -2.9499   -0.1460 H   0  0  0  0  0  0  0  0  0  0  0  0
    3.6380   -1.2728    1.5755 H   0  0  0  0  0  0  0  0  0  0  0  0
    1.9663   -1.8986    1.4619 H   0  0  0  0  0  0  0  0  0  0  0  0
    1.5039   -0.4188   -2.9280 H   0  0  0  0  0  0  0  0  0  0  0  0
    2.4790    0.7074   -1.9312 H   0  0  0  0  0  0  0  0  0  0  0  0
    1.0474    3.9666    0.9280 H   0  0  0  0  0  0  0  0  0  0  0  0
    1.2433    2.4197    1.7816 H   0  0  0  0  0  0  0  0  0  0  0  0
    3.6808    2.4157    1.1934 H   0  0  0  0  0  0  0  0  0  0  0  0
    3.4808    3.9521    0.3417 H   0  0  0  0  0  0  0  0  0  0  0  0
    3.2610    3.8774    2.0972 H   0  0  0  0  0  0  0  0  0  0  0  0
   -4.2342    1.3642    1.6610 H   0  0  0  0  0  0  0  0  0  0  0  0
   -3.0623    2.3586    0.7375 H   0  0  0  0  0  0  0  0  0  0  0  0
   -2.5031    1.3903    2.1235 H   0  0  0  0  0  0  0  0  0  0  0  0
   -2.8107   -3.7211    0.0919 H   0  0  0  0  0  0  0  0  0  0  0  0
   -3.7524   -2.4473    0.9307 H   0  0  0  0  0  0  0  0  0  0  0  0
   -2.1037   -2.8505    1.4858 H   0  0  0  0  0  0  0  0  0  0  0  0
  1  2  1  0  0  0  0
  2  3  1  0  0  0  0
  3  4  4  0  0  0  0
  4  5  2  0  0  0  0
  4  6  1  0  0  0  0
  6  7  1  0  0  0  0
  7  8  1  0  0  0  0
  7  9  1  0  0  0  0
  9 10  2  0  0  0  0
  9 11  4  0  0  0  0
 11 12  1  0  0  0  0
 12 13  1  0  0  0  0
  7 14  1  0  0  0  0
 14 15  1  0  0  0  0
 15 16  2  0  0  0  0
 15 17  1  0  0  0  0
 17 18  1  0  0  0  0
 15 19  1  0  0  0  0
 19 20  1  0  0  0  0
  1 21  1  0  0  0  0
  1 22  1  0  0  0  0
  1 23  1  0  0  0  0
  2 24  1  0  0  0  0
  2 25  1  0  0  0  0
  6 26  1  0  0  0  0
  6 27  1  0  0  0  0
 12 28  1  0  0  0  0
 12 29  1  0  0  0  0
 13 30  1  0  0  0  0
 13 31  1  0  0  0  0
 13 32  1  0  0  0  0
 18 33  1  0  0  0  0
 18 34  1  0  0  0  0
 18 35  1  0  0  0  0
 20 36  1  0  0  0  0
 20 37  1  0  0  0  0
 20 38  1  0  0  0  0
M  END
