 xtb: 6.7.1 (edcfbbe)
          04092513593D

 41 40  0     0  0            999 V2000
    4.0866   -1.3246   -2.5748 C   0  0  0  0  0  0  0  0  0  0  0  0
    4.3016   -1.5810   -1.0967 C   0  0  0  0  0  0  0  0  0  0  0  0
    3.0660   -1.6292   -0.3600 O   0  0  0  0  0  0  0  0  0  0  0  0
    2.1979   -0.3437   -0.0093 P   0  0  0  0  0  0  0  0  0  0  0  0
    3.2237    1.2887    0.3590 S   0  0  0  0  0  0  0  0  0  0  0  0
    1.2942   -0.8894    1.1730 O   0  0  0  0  0  0  0  0  0  0  0  0
    1.5855   -0.6386    2.5606 C   0  0  0  0  0  0  0  0  0  0  0  0
    2.7269   -1.4992    3.0623 C   0  0  0  0  0  0  0  0  0  0  0  0
    0.7551   -0.2661   -1.5487 S   0  0  0  0  0  0  0  0  0  0  0  0
    0.1695    1.4280   -1.2638 C   0  0  0  0  0  0  0  0  0  0  0  0
   -0.6349    1.6900    0.3456 S   0  0  0  0  0  0  0  0  0  0  0  0
   -2.3036    0.4389    0.0498 P   0  0  0  0  0  0  0  0  0  0  0  0
   -3.0483    0.2917   -1.7600 S   0  0  0  0  0  0  0  0  0  0  0  0
   -3.3582    0.8977    1.1526 O   0  0  0  0  0  0  0  0  0  0  0  0
   -4.4370    1.8139    0.8926 C   0  0  0  0  0  0  0  0  0  0  0  0
   -3.9562    3.2426    0.7406 C   0  0  0  0  0  0  0  0  0  0  0  0
   -1.7451   -0.8899    0.7081 O   0  0  0  0  0  0  0  0  0  0  0  0
   -2.3798   -2.1750    0.5162 C   0  0  0  0  0  0  0  0  0  0  0  0
   -1.5322   -3.0353   -0.3998 C   0  0  0  0  0  0  0  0  0  0  0  0
    3.3785   -2.0396   -2.9854 H   0  0  0  0  0  0  0  0  0  0  0  0
    3.7001   -0.3188   -2.7311 H   0  0  0  0  0  0  0  0  0  0  0  0
    5.0359   -1.4216   -3.0930 H   0  0  0  0  0  0  0  0  0  0  0  0
    4.9359   -0.8026   -0.6602 H   0  0  0  0  0  0  0  0  0  0  0  0
    4.7464   -2.5622   -0.9235 H   0  0  0  0  0  0  0  0  0  0  0  0
    1.8191    0.4247    2.6807 H   0  0  0  0  0  0  0  0  0  0  0  0
    0.6486   -0.8671    3.0711 H   0  0  0  0  0  0  0  0  0  0  0  0
    2.8486   -1.3431    4.1299 H   0  0  0  0  0  0  0  0  0  0  0  0
    2.5214   -2.5491    2.8715 H   0  0  0  0  0  0  0  0  0  0  0  0
    3.6512   -1.2229    2.5566 H   0  0  0  0  0  0  0  0  0  0  0  0
   -0.5388    1.6367   -2.0648 H   0  0  0  0  0  0  0  0  0  0  0  0
    1.0122    2.1180   -1.2885 H   0  0  0  0  0  0  0  0  0  0  0  0
   -4.9599    1.4857   -0.0116 H   0  0  0  0  0  0  0  0  0  0  0  0
   -5.0892    1.7012    1.7601 H   0  0  0  0  0  0  0  0  0  0  0  0
   -3.3589    3.5360    1.5999 H   0  0  0  0  0  0  0  0  0  0  0  0
   -3.3501    3.3407   -0.1587 H   0  0  0  0  0  0  0  0  0  0  0  0
   -4.8166    3.8999    0.6593 H   0  0  0  0  0  0  0  0  0  0  0  0
   -2.4599   -2.6086    1.5145 H   0  0  0  0  0  0  0  0  0  0  0  0
   -3.3809   -2.0275    0.0998 H   0  0  0  0  0  0  0  0  0  0  0  0
   -1.4935   -2.5977   -1.3954 H   0  0  0  0  0  0  0  0  0  0  0  0
   -0.5188   -3.1025   -0.0117 H   0  0  0  0  0  0  0  0  0  0  0  0
   -1.9641   -4.0290   -0.4624 H   0  0  0  0  0  0  0  0  0  0  0  0
  1  2  1  0  0  0  0
  2  3  1  0  0  0  0
  3  4  2  0  0  0  0
  4  5  2  0  0  0  0
  4  6  2  0  0  0  0
  6  7  1  0  0  0  0
  7  8  1  0  0  0  0
  4  9  1  0  0  0  0
  9 10  1  0  0  0  0
 10 11  1  0  0  0  0
 11 12  1  0  0  0  0
 12 13  2  0  0  0  0
 12 14  2  0  0  0  0
 14 15  1  0  0  0  0
 15 16  1  0  0  0  0
 12 17  2  0  0  0  0
 17 18  1  0  0  0  0
 18 19  1  0  0  0  0
  1 20  1  0  0  0  0
  1 21  1  0  0  0  0
  1 22  1  0  0  0  0
  2 23  1  0  0  0  0
  2 24  1  0  0  0  0
  7 25  1  0  0  0  0
  7 26  1  0  0  0  0
  8 27  1  0  0  0  0
  8 28  1  0  0  0  0
  8 29  1  0  0  0  0
 10 30  1  0  0  0  0
 10 31  1  0  0  0  0
 15 32  1  0  0  0  0
 15 33  1  0  0  0  0
 16 34  1  0  0  0  0
 16 35  1  0  0  0  0
 16 36  1  0  0  0  0
 18 37  1  0  0  0  0
 18 38  1  0  0  0  0
 19 39  1  0  0  0  0
 19 40  1  0  0  0  0
 19 41  1  0  0  0  0
M  END
