 xtb: 6.7.1 (edcfbbe)
          04092514003D

 41 40  0     0  0            999 V2000
    4.9958   -1.2427   -0.9436 C   0  0  0  0  0  0  0  0  0  0  0  0
    4.8323    0.1447   -0.3571 C   0  0  0  0  0  0  0  0  0  0  0  0
    3.6038    0.2902    0.3796 O   0  0  0  0  0  0  0  0  0  0  0  0
    2.1704    0.3958   -0.3050 P   0  0  0  0  0  0  0  0  0  0  0  0
    2.1592    1.3357   -2.0311 S   0  0  0  0  0  0  0  0  0  0  0  0
    1.3241    1.0590    0.8601 O   0  0  0  0  0  0  0  0  0  0  0  0
    1.3832    2.4853    1.0827 C   0  0  0  0  0  0  0  0  0  0  0  0
    0.5220    2.8030    2.2857 C   0  0  0  0  0  0  0  0  0  0  0  0
    1.4172   -1.5589   -0.2462 S   0  0  0  0  0  0  0  0  0  0  0  0
    0.0931   -1.4271   -1.5036 C   0  0  0  0  0  0  0  0  0  0  0  0
   -1.5213   -1.9216   -0.8700 S   0  0  0  0  0  0  0  0  0  0  0  0
   -2.0935   -0.0985    0.0734 P   0  0  0  0  0  0  0  0  0  0  0  0
   -1.6518    1.5266   -0.9230 S   0  0  0  0  0  0  0  0  0  0  0  0
   -1.4749   -0.0935    1.5175 O   0  0  0  0  0  0  0  0  0  0  0  0
   -1.6809   -1.1689    2.4723 C   0  0  0  0  0  0  0  0  0  0  0  0
   -0.4542   -1.2431    3.3565 C   0  0  0  0  0  0  0  0  0  0  0  0
   -3.6325   -0.3510    0.3823 O   0  0  0  0  0  0  0  0  0  0  0  0
   -4.6486   -0.3623   -0.6428 C   0  0  0  0  0  0  0  0  0  0  0  0
   -5.9942   -0.1830    0.0331 C   0  0  0  0  0  0  0  0  0  0  0  0
    4.8939   -1.9988   -0.1698 H   0  0  0  0  0  0  0  0  0  0  0  0
    4.2419   -1.4168   -1.7097 H   0  0  0  0  0  0  0  0  0  0  0  0
    5.9802   -1.3207   -1.3953 H   0  0  0  0  0  0  0  0  0  0  0  0
    4.8521    0.9011   -1.1481 H   0  0  0  0  0  0  0  0  0  0  0  0
    5.6054    0.3591    0.3826 H   0  0  0  0  0  0  0  0  0  0  0  0
    2.4262    2.7710    1.2458 H   0  0  0  0  0  0  0  0  0  0  0  0
    1.0118    2.9851    0.1814 H   0  0  0  0  0  0  0  0  0  0  0  0
    0.9077    2.2949    3.1646 H   0  0  0  0  0  0  0  0  0  0  0  0
    0.5268    3.8753    2.4528 H   0  0  0  0  0  0  0  0  0  0  0  0
   -0.4972    2.4719    2.1016 H   0  0  0  0  0  0  0  0  0  0  0  0
    0.3268   -2.1164   -2.3108 H   0  0  0  0  0  0  0  0  0  0  0  0
    0.0480   -0.3965   -1.8667 H   0  0  0  0  0  0  0  0  0  0  0  0
   -2.5790   -0.9268    3.0430 H   0  0  0  0  0  0  0  0  0  0  0  0
   -1.8391   -2.1026    1.9247 H   0  0  0  0  0  0  0  0  0  0  0  0
   -0.3047   -0.2943    3.8640 H   0  0  0  0  0  0  0  0  0  0  0  0
   -0.5906   -2.0288    4.0923 H   0  0  0  0  0  0  0  0  0  0  0  0
    0.4271   -1.4602    2.7574 H   0  0  0  0  0  0  0  0  0  0  0  0
   -4.4428    0.4499   -1.3470 H   0  0  0  0  0  0  0  0  0  0  0  0
   -4.5914   -1.3185   -1.1693 H   0  0  0  0  0  0  0  0  0  0  0  0
   -6.0156    0.7549    0.5812 H   0  0  0  0  0  0  0  0  0  0  0  0
   -6.7728   -0.1715   -0.7229 H   0  0  0  0  0  0  0  0  0  0  0  0
   -6.1780   -0.9999    0.7247 H   0  0  0  0  0  0  0  0  0  0  0  0
  1  2  1  0  0  0  0
  2  3  1  0  0  0  0
  3  4  2  0  0  0  0
  4  5  2  0  0  0  0
  4  6  2  0  0  0  0
  6  7  1  0  0  0  0
  7  8  1  0  0  0  0
  4  9  1  0  0  0  0
  9 10  1  0  0  0  0
 10 11  1  0  0  0  0
 11 12  1  0  0  0  0
 12 13  2  0  0  0  0
 12 14  2  0  0  0  0
 14 15  1  0  0  0  0
 15 16  1  0  0  0  0
 12 17  2  0  0  0  0
 17 18  1  0  0  0  0
 18 19  1  0  0  0  0
  1 20  1  0  0  0  0
  1 21  1  0  0  0  0
  1 22  1  0  0  0  0
  2 23  1  0  0  0  0
  2 24  1  0  0  0  0
  7 25  1  0  0  0  0
  7 26  1  0  0  0  0
  8 27  1  0  0  0  0
  8 28  1  0  0  0  0
  8 29  1  0  0  0  0
 10 30  1  0  0  0  0
 10 31  1  0  0  0  0
 15 32  1  0  0  0  0
 15 33  1  0  0  0  0
 16 34  1  0  0  0  0
 16 35  1  0  0  0  0
 16 36  1  0  0  0  0
 18 37  1  0  0  0  0
 18 38  1  0  0  0  0
 19 39  1  0  0  0  0
 19 40  1  0  0  0  0
 19 41  1  0  0  0  0
M  END
