 xtb: 6.7.1 (edcfbbe)
          04092505213D

 41 40  0     0  0            999 V2000
    2.6864    1.4737   -2.7082 C   0  0  0  0  0  0  0  0  0  0  0  0
    3.4064    0.3936   -1.9259 C   0  0  0  0  0  0  0  0  0  0  0  0
    2.4809   -0.3962   -1.1512 O   0  0  0  0  0  0  0  0  0  0  0  0
    2.0994    0.0023    0.3442 P   0  0  0  0  0  0  0  0  0  0  0  0
    1.3893    1.7772    0.7506 S   0  0  0  0  0  0  0  0  0  0  0  0
    3.4557   -0.1472    1.1742 O   0  0  0  0  0  0  0  0  0  0  0  0
    4.2126   -1.3807    1.2096 C   0  0  0  0  0  0  0  0  0  0  0  0
    4.0856   -2.0325    2.5724 C   0  0  0  0  0  0  0  0  0  0  0  0
    0.9376   -1.6895    0.8039 S   0  0  0  0  0  0  0  0  0  0  0  0
   -0.3447   -0.8837    1.8210 C   0  0  0  0  0  0  0  0  0  0  0  0
   -2.0202   -1.0943    1.1758 S   0  0  0  0  0  0  0  0  0  0  0  0
   -1.9740    0.2595   -0.4757 P   0  0  0  0  0  0  0  0  0  0  0  0
   -0.6213    0.0122   -1.8669 S   0  0  0  0  0  0  0  0  0  0  0  0
   -1.8323    1.7020    0.1378 O   0  0  0  0  0  0  0  0  0  0  0  0
   -2.7167    2.2572    1.1416 C   0  0  0  0  0  0  0  0  0  0  0  0
   -3.7621    3.1442    0.4972 C   0  0  0  0  0  0  0  0  0  0  0  0
   -3.4914    0.2267   -0.9442 O   0  0  0  0  0  0  0  0  0  0  0  0
   -4.2565   -0.9659   -1.2054 C   0  0  0  0  0  0  0  0  0  0  0  0
   -3.5532   -1.9265   -2.1403 C   0  0  0  0  0  0  0  0  0  0  0  0
    1.8859    1.0304   -3.2959 H   0  0  0  0  0  0  0  0  0  0  0  0
    2.2457    2.2038   -2.0318 H   0  0  0  0  0  0  0  0  0  0  0  0
    3.3895    1.9748   -3.3657 H   0  0  0  0  0  0  0  0  0  0  0  0
    4.1575    0.8281   -1.2570 H   0  0  0  0  0  0  0  0  0  0  0  0
    3.8773   -0.3291   -2.5952 H   0  0  0  0  0  0  0  0  0  0  0  0
    3.8563   -2.0459    0.4169 H   0  0  0  0  0  0  0  0  0  0  0  0
    5.2446   -1.0878    1.0068 H   0  0  0  0  0  0  0  0  0  0  0  0
    3.0637   -2.3617    2.7423 H   0  0  0  0  0  0  0  0  0  0  0  0
    4.7476   -2.8914    2.6167 H   0  0  0  0  0  0  0  0  0  0  0  0
    4.3629   -1.3233    3.3471 H   0  0  0  0  0  0  0  0  0  0  0  0
   -0.1061    0.1816    1.8951 H   0  0  0  0  0  0  0  0  0  0  0  0
   -0.3512   -1.3602    2.7977 H   0  0  0  0  0  0  0  0  0  0  0  0
   -3.1807    1.4398    1.7010 H   0  0  0  0  0  0  0  0  0  0  0  0
   -2.0561    2.8296    1.7964 H   0  0  0  0  0  0  0  0  0  0  0  0
   -4.3931    2.5604   -0.1677 H   0  0  0  0  0  0  0  0  0  0  0  0
   -4.3733    3.5936    1.2736 H   0  0  0  0  0  0  0  0  0  0  0  0
   -3.2782    3.9281   -0.0790 H   0  0  0  0  0  0  0  0  0  0  0  0
   -4.4700   -1.4464   -0.2467 H   0  0  0  0  0  0  0  0  0  0  0  0
   -5.1802   -0.5865   -1.6459 H   0  0  0  0  0  0  0  0  0  0  0  0
   -3.2860   -1.4264   -3.0685 H   0  0  0  0  0  0  0  0  0  0  0  0
   -2.6400   -2.3004   -1.6785 H   0  0  0  0  0  0  0  0  0  0  0  0
   -4.2085   -2.7640   -2.3567 H   0  0  0  0  0  0  0  0  0  0  0  0
  1  2  1  0  0  0  0
  2  3  1  0  0  0  0
  3  4  1  0  0  0  0
  4  5  2  0  0  0  0
  4  6  1  0  0  0  0
  6  7  1  0  0  0  0
  7  8  1  0  0  0  0
  4  9  1  0  0  0  0
  9 10  1  0  0  0  0
 10 11  1  0  0  0  0
 11 12  1  0  0  0  0
 12 13  2  0  0  0  0
 12 14  2  0  0  0  0
 14 15  1  0  0  0  0
 15 16  1  0  0  0  0
 12 17  2  0  0  0  0
 17 18  1  0  0  0  0
 18 19  1  0  0  0  0
  1 20  1  0  0  0  0
  1 21  1  0  0  0  0
  1 22  1  0  0  0  0
  2 23  1  0  0  0  0
  2 24  1  0  0  0  0
  7 25  1  0  0  0  0
  7 26  1  0  0  0  0
  8 27  1  0  0  0  0
  8 28  1  0  0  0  0
  8 29  1  0  0  0  0
 10 30  1  0  0  0  0
 10 31  1  0  0  0  0
 15 32  1  0  0  0  0
 15 33  1  0  0  0  0
 16 34  1  0  0  0  0
 16 35  1  0  0  0  0
 16 36  1  0  0  0  0
 18 37  1  0  0  0  0
 18 38  1  0  0  0  0
 19 39  1  0  0  0  0
 19 40  1  0  0  0  0
 19 41  1  0  0  0  0
M  END
