  22
 
 C          1.7053005868        0.1804042928       -1.6429342446
 C          3.0809501641        0.1361583147       -1.7772845987
 C          3.8874738813        0.1479081904       -0.6499520080
 C          3.3110105653        0.2075370770        0.6139142345
 C          1.9333073565        0.2517580327        0.7490969322
 C          1.1260382542        0.2366430600       -0.3807950651
 C         -0.3494824556        0.2643309866       -0.2334883318
 C         -1.0404124524        1.4675304299       -0.2213888448
 C         -2.4197405928        1.4843472899       -0.0879857441
 C         -3.1315422724        0.2927834851        0.0336100873
 C         -2.4444588765       -0.9194721541        0.0223236046
 C         -1.0583480889       -0.9297058563       -0.1099741604
 Cl        -0.2129693690       -2.4314218588       -0.1203599236
 Cl        -3.3132379866       -2.3978979092        0.1718407027
 Cl        -4.8456103514        0.3074711576        0.1971948770
 Cl        -3.2653583579        2.9833849289       -0.0714044437
 Cl         4.3107859848        0.2224170041        2.0296140738
 Cl         5.6111588160        0.0856843169       -0.8183923801
 H          1.0784960688        0.1681369407       -2.5192497044
 H          3.5373429298        0.0900570818       -2.7520118682
 H          1.4952200098        0.2950778187        1.7324620240
 H         -0.5007344009        2.3953652573       -0.3154334806
          22
        -55.06687944
 C          1.6777139378        1.4241403214       -1.0801643606
 C          3.0508245619        1.5439207424       -1.1825603847
 C          3.8759949892        0.7451274894       -0.4056706896
 C          3.3165382333       -0.1706873858        0.4790065066
 C          1.9417516273       -0.2959032842        0.5770098133
 C          1.1114243851        0.4969807453       -0.2087791000
 C         -0.3554670740        0.3769125363       -0.1114999484
 C         -1.1211485310        1.5190459038        0.1026865418
 C         -2.4993884435        1.4440943335        0.2030541897
 C         -3.1483577346        0.2170502253        0.0826243549
 C         -2.3940103779       -0.9310765119       -0.1480916791
 C         -1.0062906395       -0.8521202188       -0.2439112291
 Cl        -0.1209033408       -2.2914977842       -0.5861445398
 Cl        -3.1890275065       -2.4491737620       -0.3196320734
 Cl        -4.8619546500        0.1122470547        0.2090692408
 Cl        -3.4234475155        2.8695411953        0.4800387762
 Cl         4.3369918757       -1.1651012238        1.4669636015
 Cl         5.5966220585        0.8907950250       -0.5355192685
 H          1.0402247354        2.0384245490       -1.6943139392
 H          3.4925722447        2.2530225452       -1.8626381484
 H          1.5259990178       -0.9985111977        1.2797071712
 H         -0.6327003033        2.4736640398        0.2094870828
