 xtb: 6.7.1 (edcfbbe)
          04092505213D

 41 40  0     0  0            999 V2000
    4.3875    1.5298    1.3627 C   0  0  0  0  0  0  0  0  0  0  0  0
    3.1966    1.7141    0.4453 C   0  0  0  0  0  0  0  0  0  0  0  0
    2.7976    0.4591   -0.1432 O   0  0  0  0  0  0  0  0  0  0  0  0
    1.9907   -0.6360    0.6931 P   0  0  0  0  0  0  0  0  0  0  0  0
    1.0562    0.0073    2.2795 S   0  0  0  0  0  0  0  0  0  0  0  0
    3.0151   -1.7706    1.1112 O   0  0  0  0  0  0  0  0  0  0  0  0
    3.9638   -2.3549    0.1822 C   0  0  0  0  0  0  0  0  0  0  0  0
    5.2562   -2.6164    0.9285 C   0  0  0  0  0  0  0  0  0  0  0  0
    0.9084   -1.5615   -0.8815 S   0  0  0  0  0  0  0  0  0  0  0  0
    0.4535   -0.0930   -1.8573 C   0  0  0  0  0  0  0  0  0  0  0  0
   -0.4055    1.1837   -0.9127 S   0  0  0  0  0  0  0  0  0  0  0  0
   -2.2754    0.1758   -0.6498 P   0  0  0  0  0  0  0  0  0  0  0  0
   -2.6211   -1.2806   -1.9046 S   0  0  0  0  0  0  0  0  0  0  0  0
   -3.3093    1.3806   -0.6997 O   0  0  0  0  0  0  0  0  0  0  0  0
   -3.5990    2.0508   -1.9448 C   0  0  0  0  0  0  0  0  0  0  0  0
   -4.8457    2.8874   -1.7422 C   0  0  0  0  0  0  0  0  0  0  0  0
   -2.3475   -0.2807    0.8531 O   0  0  0  0  0  0  0  0  0  0  0  0
   -2.3371    0.6512    1.9646 C   0  0  0  0  0  0  0  0  0  0  0  0
   -3.7473    0.9452    2.4287 C   0  0  0  0  0  0  0  0  0  0  0  0
    4.1168    0.8643    2.1823 H   0  0  0  0  0  0  0  0  0  0  0  0
    5.2246    1.1017    0.8174 H   0  0  0  0  0  0  0  0  0  0  0  0
    4.6793    2.4916    1.7723 H   0  0  0  0  0  0  0  0  0  0  0  0
    3.4318    2.3481   -0.4104 H   0  0  0  0  0  0  0  0  0  0  0  0
    2.3454    2.1289    0.9935 H   0  0  0  0  0  0  0  0  0  0  0  0
    3.5210   -3.2815   -0.1896 H   0  0  0  0  0  0  0  0  0  0  0  0
    4.1156   -1.6655   -0.6520 H   0  0  0  0  0  0  0  0  0  0  0  0
    5.9627   -3.0956    0.2584 H   0  0  0  0  0  0  0  0  0  0  0  0
    5.6793   -1.6837    1.2914 H   0  0  0  0  0  0  0  0  0  0  0  0
    5.0678   -3.2665    1.7781 H   0  0  0  0  0  0  0  0  0  0  0  0
   -0.2022   -0.4670   -2.6446 H   0  0  0  0  0  0  0  0  0  0  0  0
    1.3493    0.3674   -2.2645 H   0  0  0  0  0  0  0  0  0  0  0  0
   -2.7378    2.6719   -2.2062 H   0  0  0  0  0  0  0  0  0  0  0  0
   -3.7448    1.2920   -2.7205 H   0  0  0  0  0  0  0  0  0  0  0  0
   -4.6828    3.6134   -0.9509 H   0  0  0  0  0  0  0  0  0  0  0  0
   -5.0774    3.4081   -2.6654 H   0  0  0  0  0  0  0  0  0  0  0  0
   -5.6830    2.2504   -1.4711 H   0  0  0  0  0  0  0  0  0  0  0  0
   -1.7519    0.1503    2.7384 H   0  0  0  0  0  0  0  0  0  0  0  0
   -1.8154    1.5623    1.6596 H   0  0  0  0  0  0  0  0  0  0  0  0
   -3.7015    1.5861    3.3035 H   0  0  0  0  0  0  0  0  0  0  0  0
   -4.3073    1.4448    1.6429 H   0  0  0  0  0  0  0  0  0  0  0  0
   -4.2526    0.0189    2.6876 H   0  0  0  0  0  0  0  0  0  0  0  0
  1  2  1  0  0  0  0
  2  3  1  0  0  0  0
  3  4  1  0  0  0  0
  4  5  2  0  0  0  0
  4  6  2  0  0  0  0
  6  7  1  0  0  0  0
  7  8  1  0  0  0  0
  4  9  1  0  0  0  0
  9 10  1  0  0  0  0
 10 11  1  0  0  0  0
 11 12  1  0  0  0  0
 12 13  2  0  0  0  0
 12 14  2  0  0  0  0
 14 15  1  0  0  0  0
 15 16  1  0  0  0  0
 12 17  2  0  0  0  0
 17 18  1  0  0  0  0
 18 19  1  0  0  0  0
  1 20  1  0  0  0  0
  1 21  1  0  0  0  0
  1 22  1  0  0  0  0
  2 23  1  0  0  0  0
  2 24  1  0  0  0  0
  7 25  1  0  0  0  0
  7 26  1  0  0  0  0
  8 27  1  0  0  0  0
  8 28  1  0  0  0  0
  8 29  1  0  0  0  0
 10 30  1  0  0  0  0
 10 31  1  0  0  0  0
 15 32  1  0  0  0  0
 15 33  1  0  0  0  0
 16 34  1  0  0  0  0
 16 35  1  0  0  0  0
 16 36  1  0  0  0  0
 18 37  1  0  0  0  0
 18 38  1  0  0  0  0
 19 39  1  0  0  0  0
 19 40  1  0  0  0  0
 19 41  1  0  0  0  0
M  END
