 xtb: 6.7.1 (edcfbbe)
          04092505213D

 41 40  0     0  0            999 V2000
    4.9528   -1.3247    0.0122 C   0  0  0  0  0  0  0  0  0  0  0  0
    4.0585   -1.8218   -1.1028 C   0  0  0  0  0  0  0  0  0  0  0  0
    3.1641   -0.8058   -1.6182 O   0  0  0  0  0  0  0  0  0  0  0  0
    2.1086    0.0393   -0.8071 P   0  0  0  0  0  0  0  0  0  0  0  0
    0.8357    0.7960   -2.0898 S   0  0  0  0  0  0  0  0  0  0  0  0
    3.0444    1.0175    0.0145 O   0  0  0  0  0  0  0  0  0  0  0  0
    2.6591    2.0523    0.9345 C   0  0  0  0  0  0  0  0  0  0  0  0
    2.2209    3.3091    0.2103 C   0  0  0  0  0  0  0  0  0  0  0  0
    1.2999   -1.3000    0.6419 S   0  0  0  0  0  0  0  0  0  0  0  0
   -0.1391   -1.8700   -0.3203 C   0  0  0  0  0  0  0  0  0  0  0  0
   -1.6841   -1.8635    0.6168 S   0  0  0  0  0  0  0  0  0  0  0  0
   -2.1018    0.2289    0.5847 P   0  0  0  0  0  0  0  0  0  0  0  0
   -0.7793    1.4521    1.3411 S   0  0  0  0  0  0  0  0  0  0  0  0
   -3.5654    0.2787    1.2024 O   0  0  0  0  0  0  0  0  0  0  0  0
   -3.9777   -0.3631    2.4245 C   0  0  0  0  0  0  0  0  0  0  0  0
   -3.0682   -0.0456    3.5923 C   0  0  0  0  0  0  0  0  0  0  0  0
   -2.3668    0.6139   -0.9171 O   0  0  0  0  0  0  0  0  0  0  0  0
   -3.3358   -0.0488   -1.7683 C   0  0  0  0  0  0  0  0  0  0  0  0
   -2.9899    0.2903   -3.2033 C   0  0  0  0  0  0  0  0  0  0  0  0
    5.4761   -0.4238   -0.2969 H   0  0  0  0  0  0  0  0  0  0  0  0
    4.3638   -1.1045    0.9002 H   0  0  0  0  0  0  0  0  0  0  0  0
    5.6772   -2.0969    0.2527 H   0  0  0  0  0  0  0  0  0  0  0  0
    3.4532   -2.6661   -0.7628 H   0  0  0  0  0  0  0  0  0  0  0  0
    4.6350   -2.1087   -1.9835 H   0  0  0  0  0  0  0  0  0  0  0  0
    1.8618    1.6880    1.5870 H   0  0  0  0  0  0  0  0  0  0  0  0
    3.5641    2.2284    1.5193 H   0  0  0  0  0  0  0  0  0  0  0  0
    2.0426    4.0943    0.9375 H   0  0  0  0  0  0  0  0  0  0  0  0
    2.9867    3.6274   -0.4924 H   0  0  0  0  0  0  0  0  0  0  0  0
    1.2964    3.1264   -0.3342 H   0  0  0  0  0  0  0  0  0  0  0  0
    0.0215   -2.9062   -0.6063 H   0  0  0  0  0  0  0  0  0  0  0  0
   -0.2356   -1.2201   -1.1958 H   0  0  0  0  0  0  0  0  0  0  0  0
   -4.9864    0.0208    2.5870 H   0  0  0  0  0  0  0  0  0  0  0  0
   -4.0134   -1.4410    2.2436 H   0  0  0  0  0  0  0  0  0  0  0  0
   -3.4691   -0.4960    4.4945 H   0  0  0  0  0  0  0  0  0  0  0  0
   -2.0703   -0.4434    3.4103 H   0  0  0  0  0  0  0  0  0  0  0  0
   -2.9878    1.0303    3.7301 H   0  0  0  0  0  0  0  0  0  0  0  0
   -3.2855   -1.1265   -1.5857 H   0  0  0  0  0  0  0  0  0  0  0  0
   -4.3264    0.3182   -1.4934 H   0  0  0  0  0  0  0  0  0  0  0  0
   -3.6684   -0.2317   -3.8698 H   0  0  0  0  0  0  0  0  0  0  0  0
   -3.0736    1.3612   -3.3641 H   0  0  0  0  0  0  0  0  0  0  0  0
   -1.9657   -0.0034   -3.4221 H   0  0  0  0  0  0  0  0  0  0  0  0
  1  2  1  0  0  0  0
  2  3  1  0  0  0  0
  3  4  2  0  0  0  0
  4  5  2  0  0  0  0
  4  6  2  0  0  0  0
  6  7  1  0  0  0  0
  7  8  1  0  0  0  0
  4  9  1  0  0  0  0
  9 10  1  0  0  0  0
 10 11  1  0  0  0  0
 11 12  1  0  0  0  0
 12 13  2  0  0  0  0
 12 14  2  0  0  0  0
 14 15  1  0  0  0  0
 15 16  1  0  0  0  0
 12 17  2  0  0  0  0
 17 18  1  0  0  0  0
 18 19  1  0  0  0  0
  1 20  1  0  0  0  0
  1 21  1  0  0  0  0
  1 22  1  0  0  0  0
  2 23  1  0  0  0  0
  2 24  1  0  0  0  0
  7 25  1  0  0  0  0
  7 26  1  0  0  0  0
  8 27  1  0  0  0  0
  8 28  1  0  0  0  0
  8 29  1  0  0  0  0
 10 30  1  0  0  0  0
 10 31  1  0  0  0  0
 15 32  1  0  0  0  0
 15 33  1  0  0  0  0
 16 34  1  0  0  0  0
 16 35  1  0  0  0  0
 16 36  1  0  0  0  0
 18 37  1  0  0  0  0
 18 38  1  0  0  0  0
 19 39  1  0  0  0  0
 19 40  1  0  0  0  0
 19 41  1  0  0  0  0
M  END
