 xtb: 6.7.1 (edcfbbe)
          04092514033D

 41 40  0     0  0            999 V2000
    5.9747   -0.3933   -0.3700 C   0  0  0  0  0  0  0  0  0  0  0  0
    4.5358   -0.8026   -0.6188 C   0  0  0  0  0  0  0  0  0  0  0  0
    3.6755    0.2630   -0.1665 O   0  0  0  0  0  0  0  0  0  0  0  0
    2.1771    0.4172   -0.6813 P   0  0  0  0  0  0  0  0  0  0  0  0
    1.9780    0.3451   -2.6267 S   0  0  0  0  0  0  0  0  0  0  0  0
    1.7708    1.8178   -0.0916 O   0  0  0  0  0  0  0  0  0  0  0  0
    1.3613    2.0886    1.2689 C   0  0  0  0  0  0  0  0  0  0  0  0
    2.4262    1.7376    2.2846 C   0  0  0  0  0  0  0  0  0  0  0  0
    1.1286   -1.0796    0.4081 S   0  0  0  0  0  0  0  0  0  0  0  0
   -0.0883   -1.6199   -0.8445 C   0  0  0  0  0  0  0  0  0  0  0  0
   -1.7076   -1.9492   -0.1265 S   0  0  0  0  0  0  0  0  0  0  0  0
   -2.2994    0.0641    0.2399 P   0  0  0  0  0  0  0  0  0  0  0  0
   -1.6564    1.3936   -1.0480 S   0  0  0  0  0  0  0  0  0  0  0  0
   -1.8101    0.4040    1.7002 O   0  0  0  0  0  0  0  0  0  0  0  0
   -2.1863   -0.3689    2.8742 C   0  0  0  0  0  0  0  0  0  0  0  0
   -0.9353   -0.6608    3.6770 C   0  0  0  0  0  0  0  0  0  0  0  0
   -3.8732   -0.0491    0.4462 O   0  0  0  0  0  0  0  0  0  0  0  0
   -4.8459    0.1049   -0.6031 C   0  0  0  0  0  0  0  0  0  0  0  0
   -4.8065   -1.0201   -1.6171 C   0  0  0  0  0  0  0  0  0  0  0  0
    6.2174    0.4976   -0.9425 H   0  0  0  0  0  0  0  0  0  0  0  0
    6.1288   -0.1871    0.6851 H   0  0  0  0  0  0  0  0  0  0  0  0
    6.6301   -1.2026   -0.6761 H   0  0  0  0  0  0  0  0  0  0  0  0
    4.2792   -1.7051   -0.0576 H   0  0  0  0  0  0  0  0  0  0  0  0
    4.3497   -0.9752   -1.6843 H   0  0  0  0  0  0  0  0  0  0  0  0
    1.1475    3.1584    1.2540 H   0  0  0  0  0  0  0  0  0  0  0  0
    0.4341    1.5399    1.4604 H   0  0  0  0  0  0  0  0  0  0  0  0
    3.3564    2.2447    2.0425 H   0  0  0  0  0  0  0  0  0  0  0  0
    2.0902    2.0525    3.2679 H   0  0  0  0  0  0  0  0  0  0  0  0
    2.6004    0.6632    2.2954 H   0  0  0  0  0  0  0  0  0  0  0  0
    0.2496   -2.5572   -1.2793 H   0  0  0  0  0  0  0  0  0  0  0  0
   -0.1659   -0.8401   -1.6065 H   0  0  0  0  0  0  0  0  0  0  0  0
   -2.8908    0.2486    3.4340 H   0  0  0  0  0  0  0  0  0  0  0  0
   -2.6823   -1.2878    2.5529 H   0  0  0  0  0  0  0  0  0  0  0  0
   -0.2498   -1.2742    3.0968 H   0  0  0  0  0  0  0  0  0  0  0  0
   -0.4375    0.2685    3.9394 H   0  0  0  0  0  0  0  0  0  0  0  0
   -1.2095   -1.1887    4.5844 H   0  0  0  0  0  0  0  0  0  0  0  0
   -5.7974    0.1256   -0.0687 H   0  0  0  0  0  0  0  0  0  0  0  0
   -4.6736    1.0685   -1.0917 H   0  0  0  0  0  0  0  0  0  0  0  0
   -3.8623   -1.0050   -2.1593 H   0  0  0  0  0  0  0  0  0  0  0  0
   -4.9175   -1.9839   -1.1274 H   0  0  0  0  0  0  0  0  0  0  0  0
   -5.6174   -0.8816   -2.3261 H   0  0  0  0  0  0  0  0  0  0  0  0
  1  2  1  0  0  0  0
  2  3  1  0  0  0  0
  3  4  2  0  0  0  0
  4  5  2  0  0  0  0
  4  6  2  0  0  0  0
  6  7  1  0  0  0  0
  7  8  1  0  0  0  0
  4  9  1  0  0  0  0
  9 10  1  0  0  0  0
 10 11  1  0  0  0  0
 11 12  1  0  0  0  0
 12 13  2  0  0  0  0
 12 14  2  0  0  0  0
 14 15  1  0  0  0  0
 15 16  1  0  0  0  0
 12 17  2  0  0  0  0
 17 18  1  0  0  0  0
 18 19  1  0  0  0  0
  1 20  1  0  0  0  0
  1 21  1  0  0  0  0
  1 22  1  0  0  0  0
  2 23  1  0  0  0  0
  2 24  1  0  0  0  0
  7 25  1  0  0  0  0
  7 26  1  0  0  0  0
  8 27  1  0  0  0  0
  8 28  1  0  0  0  0
  8 29  1  0  0  0  0
 10 30  1  0  0  0  0
 10 31  1  0  0  0  0
 15 32  1  0  0  0  0
 15 33  1  0  0  0  0
 16 34  1  0  0  0  0
 16 35  1  0  0  0  0
 16 36  1  0  0  0  0
 18 37  1  0  0  0  0
 18 38  1  0  0  0  0
 19 39  1  0  0  0  0
 19 40  1  0  0  0  0
 19 41  1  0  0  0  0
M  END
