 xtb: 6.7.1 (edcfbbe)
          04092505213D

 41 40  0     0  0            999 V2000
    5.8173    0.4146    0.1378 C   0  0  0  0  0  0  0  0  0  0  0  0
    4.4421    0.0959    0.6880 C   0  0  0  0  0  0  0  0  0  0  0  0
    3.5200    0.0585   -0.4207 O   0  0  0  0  0  0  0  0  0  0  0  0
    2.0954   -0.6286   -0.2717 P   0  0  0  0  0  0  0  0  0  0  0  0
    2.1340   -2.4398    0.4727 S   0  0  0  0  0  0  0  0  0  0  0  0
    1.5373   -0.5863   -1.7426 O   0  0  0  0  0  0  0  0  0  0  0  0
    1.9057    0.3821   -2.7588 C   0  0  0  0  0  0  0  0  0  0  0  0
    1.6416    1.8122   -2.3411 C   0  0  0  0  0  0  0  0  0  0  0  0
    0.9787    0.7746    0.8899 S   0  0  0  0  0  0  0  0  0  0  0  0
    0.0296   -0.3859    1.8989 C   0  0  0  0  0  0  0  0  0  0  0  0
   -1.2050   -1.3437    0.9697 S   0  0  0  0  0  0  0  0  0  0  0  0
   -2.3786    0.2360    0.1835 P   0  0  0  0  0  0  0  0  0  0  0  0
   -1.8781    1.0896   -1.5099 S   0  0  0  0  0  0  0  0  0  0  0  0
   -2.4771    1.1759    1.4479 O   0  0  0  0  0  0  0  0  0  0  0  0
   -2.5773    2.6183    1.3793 C   0  0  0  0  0  0  0  0  0  0  0  0
   -1.4916    3.2352    2.2378 C   0  0  0  0  0  0  0  0  0  0  0  0
   -3.8442   -0.3896    0.1426 O   0  0  0  0  0  0  0  0  0  0  0  0
   -4.3456   -1.0937   -1.0031 C   0  0  0  0  0  0  0  0  0  0  0  0
   -3.6301   -2.4138   -1.2093 C   0  0  0  0  0  0  0  0  0  0  0  0
    5.8007    1.3700   -0.3784 H   0  0  0  0  0  0  0  0  0  0  0  0
    6.5255    0.4618    0.9585 H   0  0  0  0  0  0  0  0  0  0  0  0
    6.1291   -0.3581   -0.5593 H   0  0  0  0  0  0  0  0  0  0  0  0
    4.1025    0.8649    1.3870 H   0  0  0  0  0  0  0  0  0  0  0  0
    4.4248   -0.8784    1.1875 H   0  0  0  0  0  0  0  0  0  0  0  0
    2.9606    0.2300   -2.9948 H   0  0  0  0  0  0  0  0  0  0  0  0
    1.2842    0.0955   -3.6084 H   0  0  0  0  0  0  0  0  0  0  0  0
    2.2321    2.0690   -1.4639 H   0  0  0  0  0  0  0  0  0  0  0  0
    1.9144    2.4721   -3.1585 H   0  0  0  0  0  0  0  0  0  0  0  0
    0.5878    1.9524   -2.1123 H   0  0  0  0  0  0  0  0  0  0  0  0
   -0.4652    0.1985    2.6700 H   0  0  0  0  0  0  0  0  0  0  0  0
    0.7004   -1.1317    2.3259 H   0  0  0  0  0  0  0  0  0  0  0  0
   -2.4809    2.9309    0.3342 H   0  0  0  0  0  0  0  0  0  0  0  0
   -3.5733    2.8728    1.7460 H   0  0  0  0  0  0  0  0  0  0  0  0
   -1.5902    4.3153    2.2075 H   0  0  0  0  0  0  0  0  0  0  0  0
   -1.5873    2.8960    3.2653 H   0  0  0  0  0  0  0  0  0  0  0  0
   -0.5097    2.9557    1.8606 H   0  0  0  0  0  0  0  0  0  0  0  0
   -5.4043   -1.2379   -0.7843 H   0  0  0  0  0  0  0  0  0  0  0  0
   -4.2304   -0.4516   -1.8831 H   0  0  0  0  0  0  0  0  0  0  0  0
   -4.0843   -2.9489   -2.0372 H   0  0  0  0  0  0  0  0  0  0  0  0
   -2.5786   -2.2347   -1.4390 H   0  0  0  0  0  0  0  0  0  0  0  0
   -3.6874   -3.0212   -0.3094 H   0  0  0  0  0  0  0  0  0  0  0  0
  1  2  1  0  0  0  0
  2  3  1  0  0  0  0
  3  4  2  0  0  0  0
  4  5  2  0  0  0  0
  4  6  2  0  0  0  0
  6  7  1  0  0  0  0
  7  8  1  0  0  0  0
  4  9  1  0  0  0  0
  9 10  1  0  0  0  0
 10 11  1  0  0  0  0
 11 12  1  0  0  0  0
 12 13  2  0  0  0  0
 12 14  2  0  0  0  0
 14 15  1  0  0  0  0
 15 16  1  0  0  0  0
 12 17  2  0  0  0  0
 17 18  1  0  0  0  0
 18 19  1  0  0  0  0
  1 20  1  0  0  0  0
  1 21  1  0  0  0  0
  1 22  1  0  0  0  0
  2 23  1  0  0  0  0
  2 24  1  0  0  0  0
  7 25  1  0  0  0  0
  7 26  1  0  0  0  0
  8 27  1  0  0  0  0
  8 28  1  0  0  0  0
  8 29  1  0  0  0  0
 10 30  1  0  0  0  0
 10 31  1  0  0  0  0
 15 32  1  0  0  0  0
 15 33  1  0  0  0  0
 16 34  1  0  0  0  0
 16 35  1  0  0  0  0
 16 36  1  0  0  0  0
 18 37  1  0  0  0  0
 18 38  1  0  0  0  0
 19 39  1  0  0  0  0
 19 40  1  0  0  0  0
 19 41  1  0  0  0  0
M  END
