 xtb: 6.7.1 (edcfbbe)
          04092505213D

 41 40  0     0  0            999 V2000
    1.3026    1.1248    2.7269 C   0  0  0  0  0  0  0  0  0  0  0  0
    2.4761    1.0995    1.7683 C   0  0  0  0  0  0  0  0  0  0  0  0
    2.8336   -0.2418    1.3918 O   0  0  0  0  0  0  0  0  0  0  0  0
    2.1023   -1.1144    0.2778 P   0  0  0  0  0  0  0  0  0  0  0  0
    0.3133   -1.8046    0.6717 S   0  0  0  0  0  0  0  0  0  0  0  0
    3.1011   -2.3128    0.0975 O   0  0  0  0  0  0  0  0  0  0  0  0
    4.4995   -2.1441   -0.2529 C   0  0  0  0  0  0  0  0  0  0  0  0
    5.3729   -2.1928    0.9837 C   0  0  0  0  0  0  0  0  0  0  0  0
    2.3056    0.0507   -1.5044 S   0  0  0  0  0  0  0  0  0  0  0  0
    0.5717    0.3613   -1.8742 C   0  0  0  0  0  0  0  0  0  0  0  0
   -0.1727    1.6036   -0.7518 S   0  0  0  0  0  0  0  0  0  0  0  0
   -2.0196    0.6784   -0.3238 P   0  0  0  0  0  0  0  0  0  0  0  0
   -2.5344   -0.8326   -1.4693 S   0  0  0  0  0  0  0  0  0  0  0  0
   -3.0346    1.9024   -0.3721 O   0  0  0  0  0  0  0  0  0  0  0  0
   -3.4832    2.4605   -1.6219 C   0  0  0  0  0  0  0  0  0  0  0  0
   -4.7151    3.2981   -1.3434 C   0  0  0  0  0  0  0  0  0  0  0  0
   -1.9267    0.4539    1.2367 O   0  0  0  0  0  0  0  0  0  0  0  0
   -2.7192   -0.5354    1.9215 C   0  0  0  0  0  0  0  0  0  0  0  0
   -4.1936   -0.1968    1.8808 C   0  0  0  0  0  0  0  0  0  0  0  0
    1.1270    2.1459    3.0498 H   0  0  0  0  0  0  0  0  0  0  0  0
    0.4027    0.7530    2.2405 H   0  0  0  0  0  0  0  0  0  0  0  0
    1.5106    0.5009    3.5921 H   0  0  0  0  0  0  0  0  0  0  0  0
    3.3796    1.4880    2.2421 H   0  0  0  0  0  0  0  0  0  0  0  0
    2.2560    1.6807    0.8669 H   0  0  0  0  0  0  0  0  0  0  0  0
    4.7122   -2.9786   -0.9233 H   0  0  0  0  0  0  0  0  0  0  0  0
    4.6184   -1.1999   -0.7911 H   0  0  0  0  0  0  0  0  0  0  0  0
    6.4142   -2.1266    0.6845 H   0  0  0  0  0  0  0  0  0  0  0  0
    5.1354   -1.3665    1.6476 H   0  0  0  0  0  0  0  0  0  0  0  0
    5.2107   -3.1259    1.5161 H   0  0  0  0  0  0  0  0  0  0  0  0
   -0.0050   -0.5637   -1.7954 H   0  0  0  0  0  0  0  0  0  0  0  0
    0.5502    0.7547   -2.8872 H   0  0  0  0  0  0  0  0  0  0  0  0
   -2.6733    3.0685   -2.0349 H   0  0  0  0  0  0  0  0  0  0  0  0
   -3.7023    1.6382   -2.3119 H   0  0  0  0  0  0  0  0  0  0  0  0
   -5.0516    3.7546   -2.2684 H   0  0  0  0  0  0  0  0  0  0  0  0
   -5.5089    2.6749   -0.9415 H   0  0  0  0  0  0  0  0  0  0  0  0
   -4.4777    4.0747   -0.6223 H   0  0  0  0  0  0  0  0  0  0  0  0
   -2.5211   -1.5112    1.4651 H   0  0  0  0  0  0  0  0  0  0  0  0
   -2.3243   -0.5265    2.9383 H   0  0  0  0  0  0  0  0  0  0  0  0
   -4.7454   -0.9186    2.4747 H   0  0  0  0  0  0  0  0  0  0  0  0
   -4.3578    0.8031    2.2738 H   0  0  0  0  0  0  0  0  0  0  0  0
   -4.5516   -0.2361    0.8524 H   0  0  0  0  0  0  0  0  0  0  0  0
  1  2  1  0  0  0  0
  2  3  1  0  0  0  0
  3  4  2  0  0  0  0
  4  5  2  0  0  0  0
  4  6  2  0  0  0  0
  6  7  1  0  0  0  0
  7  8  1  0  0  0  0
  4  9  1  0  0  0  0
  9 10  1  0  0  0  0
 10 11  1  0  0  0  0
 11 12  1  0  0  0  0
 12 13  2  0  0  0  0
 12 14  2  0  0  0  0
 14 15  1  0  0  0  0
 15 16  1  0  0  0  0
 12 17  2  0  0  0  0
 17 18  1  0  0  0  0
 18 19  1  0  0  0  0
  1 20  1  0  0  0  0
  1 21  1  0  0  0  0
  1 22  1  0  0  0  0
  2 23  1  0  0  0  0
  2 24  1  0  0  0  0
  7 25  1  0  0  0  0
  7 26  1  0  0  0  0
  8 27  1  0  0  0  0
  8 28  1  0  0  0  0
  8 29  1  0  0  0  0
 10 30  1  0  0  0  0
 10 31  1  0  0  0  0
 15 32  1  0  0  0  0
 15 33  1  0  0  0  0
 16 34  1  0  0  0  0
 16 35  1  0  0  0  0
 16 36  1  0  0  0  0
 18 37  1  0  0  0  0
 18 38  1  0  0  0  0
 19 39  1  0  0  0  0
 19 40  1  0  0  0  0
 19 41  1  0  0  0  0
M  END
