41
 xtb: 6.7.1 (edcfbbe)
C            5.27937645745847       -2.47338329149386       -1.75990932108034
C            4.47606621079496       -1.20663707342566       -1.62016960205537
O            3.49167383102875       -1.43534559310997       -0.55245194721179
P            2.47439568309841       -0.26944451031347       -0.10114439108686
S            3.22818666720493        1.51013038800080        0.14310056198069
O            1.78519277998328       -0.96007283525755        1.16927098709757
C            2.34539418646414       -0.82585329319208        2.52726328594688
C            1.41975177685668        0.02535356915679        3.35721967146093
S            0.94900250276589       -0.45370407969994       -1.56151234919657
C            0.13859375011126        1.18673089772332       -1.41728544179638
S           -0.81880650967365        1.50969420106336        0.11189685075615
P           -2.66045934902362        0.48380221116298       -0.26674355937380
S           -2.96562460175131       -0.01778398637541       -2.11908874555153
O           -3.78609896629760        1.48525277635435        0.27549222656512
C           -3.78693357705307        1.95667491506448        1.67708302612066
C           -5.03681324090388        1.46059343071103        2.35630284859828
O           -2.73724811854312       -0.66623954540181        0.85811090028237
C           -1.69776806399704       -1.68985609290201        1.03468799778319
C           -1.91370413511064       -2.87305829560208        0.12422900100444
H            6.02573171148915       -2.33445496016593       -2.54801366278120
H            5.80104261132863       -2.70838222244456       -0.82759675354443
H            4.63899306455136       -3.31641609318392       -2.03461139857826
H            3.93714407273921       -0.96316184776945       -2.54216992288590
H            5.10144607679115       -0.35636548254608       -1.33188239700052
H            2.41308484080174       -1.84897754779774        2.90429970699775
H            3.35175591620181       -0.40145496292363        2.46852571920971
H            0.41133123381223       -0.39918278697957        3.37207287060797
H            1.79446403186630        0.06339238926147        4.38524270167302
H            1.37108001553675        1.04553955501332        2.96659062687300
H           -0.51850667064689        1.27130627607256       -2.28716059392492
H            0.90288053600118        1.96877510500859       -1.45333106974607
H           -2.88766497982116        1.60309132143524        2.19125734684783
H           -3.75468634507493        3.04693399203394        1.61454317482529
H           -5.93045054497684        1.80944223230667        1.83114454371867
H           -5.04996469022220        0.36787159721239        2.40097178008922
H           -5.06306792733381        1.85072003565575        3.37899430520631
H           -0.71880625885095       -1.22630583489005        0.87896833343507
H           -1.78733825315868       -1.97124813278615        2.08623132297005
H           -1.78772692055069       -2.59982619747716       -0.92607964594869
H           -1.17139242486184       -3.63911244921183        0.37228697367758
H           -2.91038470210346       -3.30083497587838        0.26640547369778
