41
 xtb: 6.7.1 (edcfbbe)
C            4.48009269776835       -2.52940686442857        0.37249866885931
C            4.75454109889232       -1.04818599439961        0.30259268713285
O            3.57661769347678       -0.25108162672074        0.67543395564690
P            2.34903408208812        0.03016227058303       -0.32986609663020
S            2.77128772796215        0.09369323219295       -2.23126920105339
O            1.71272686728407        1.34703108568844        0.33032928256787
C            2.31170026329955        2.67266038993739        0.08216432691420
C            1.30684636361383        3.53031527179134       -0.64258326092566
S            0.94031726600655       -1.42896944305694        0.27021440776168
C           -0.23030269934344       -1.39815826633545       -1.14502826673834
S           -1.11972545753407        0.16766608819460       -1.53249218975353
P           -2.46774543408057        0.39204192124098        0.07241345553870
S           -3.87039324216995        1.66084354621722       -0.39459225090596
O           -1.49269991052574        0.79158462505446        1.28340286463224
C           -2.01614002955213        1.38131503161375        2.52806651284175
C           -2.78861973580783        0.38835363915955        3.36190668895042
O           -2.92550245875655       -1.08710783482703        0.51682308694339
C           -4.15832280757391       -1.71690987538356        0.02352677543668
C           -4.00244586635632       -2.25808623921295       -1.37627161212290
H            3.76293537717952       -2.84326729066765       -0.39127061704290
H            5.41930784802243       -3.06507971271323        0.19941777338444
H            4.09919652592647       -2.81163025406188        1.35838969597025
H            5.07768094700521       -0.73693576233843       -0.69520818303429
H            5.50762583423785       -0.74382575892411        1.03227558686378
H            2.55410061076151        3.06806006594354        1.07160624062944
H            3.23736041300349        2.55812023478851       -0.49006911157817
H            1.09270363314922        3.12718825502991       -1.63642235463218
H            0.37292986436673        3.59577400834974       -0.07596839591390
H            1.71363978650528        4.54033918657082       -0.75676028190560
H           -0.95407894123874       -2.19026841238027       -0.93596988562304
H            0.31110827815576       -1.64030529328100       -2.06430284577295
H           -1.11367264837161        1.71868657064379        3.04149184761713
H           -2.62178961910224        2.25318899705313        2.26154352266943
H           -2.19233504088064       -0.50706279577084        3.55904060603781
H           -3.03007229529907        0.85932385543166        4.32072198634293
H           -3.72684193446998        0.09452700797504        2.88268074226684
H           -4.34165455970356       -2.51598668985817        0.74483996137109
H           -4.96716373256913       -0.98308472159833        0.09040121743005
H           -3.17054982633148       -2.96597370446936       -1.43565414759817
H           -4.92255062487079       -2.78639981417446       -1.64774444022688
H           -3.84453050111926       -1.45632780482705       -2.10358674851102
