 xtb: 6.7.1 (edcfbbe)
          04092505213D

 41 40  0     0  0            999 V2000
    3.7120   -2.2669    1.6003 C   0  0  0  0  0  0  0  0  0  0  0  0
    2.3299   -2.2159    0.9821 C   0  0  0  0  0  0  0  0  0  0  0  0
    1.8914   -0.8548    0.7999 O   0  0  0  0  0  0  0  0  0  0  0  0
    2.4702    0.0704   -0.3708 P   0  0  0  0  0  0  0  0  0  0  0  0
    3.1437   -0.8836   -1.9365 S   0  0  0  0  0  0  0  0  0  0  0  0
    3.5847    0.9894    0.2777 O   0  0  0  0  0  0  0  0  0  0  0  0
    3.4189    1.6918    1.5342 C   0  0  0  0  0  0  0  0  0  0  0  0
    3.0084    3.1319    1.3022 C   0  0  0  0  0  0  0  0  0  0  0  0
    0.8026    1.3350   -0.6840 S   0  0  0  0  0  0  0  0  0  0  0  0
   -0.1315    0.1571   -1.6957 C   0  0  0  0  0  0  0  0  0  0  0  0
   -1.0044   -1.0771   -0.7169 S   0  0  0  0  0  0  0  0  0  0  0  0
   -2.5187    0.2513    0.0089 P   0  0  0  0  0  0  0  0  0  0  0  0
   -3.0893    1.5893   -1.3058 S   0  0  0  0  0  0  0  0  0  0  0  0
   -1.9896    0.9982    1.2909 O   0  0  0  0  0  0  0  0  0  0  0  0
   -1.8860    0.4603    2.6321 C   0  0  0  0  0  0  0  0  0  0  0  0
   -0.9516   -0.7281    2.7186 C   0  0  0  0  0  0  0  0  0  0  0  0
   -3.6072   -0.7250    0.6261 O   0  0  0  0  0  0  0  0  0  0  0  0
   -4.1708   -1.8704   -0.0398 C   0  0  0  0  0  0  0  0  0  0  0  0
   -4.8029   -1.5234   -1.3710 C   0  0  0  0  0  0  0  0  0  0  0  0
    3.7233   -1.7460    2.5541 H   0  0  0  0  0  0  0  0  0  0  0  0
    3.9998   -3.3022    1.7527 H   0  0  0  0  0  0  0  0  0  0  0  0
    4.4306   -1.7960    0.9296 H   0  0  0  0  0  0  0  0  0  0  0  0
    1.5725   -2.6570    1.6312 H   0  0  0  0  0  0  0  0  0  0  0  0
    2.3221   -2.7168    0.0094 H   0  0  0  0  0  0  0  0  0  0  0  0
    2.6829    1.1628    2.1439 H   0  0  0  0  0  0  0  0  0  0  0  0
    4.4021    1.6340    2.0045 H   0  0  0  0  0  0  0  0  0  0  0  0
    3.7219    3.6212    0.6449 H   0  0  0  0  0  0  0  0  0  0  0  0
    2.0224    3.1822    0.8438 H   0  0  0  0  0  0  0  0  0  0  0  0
    2.9837    3.6522    2.2547 H   0  0  0  0  0  0  0  0  0  0  0  0
    0.5567   -0.3728   -2.3556 H   0  0  0  0  0  0  0  0  0  0  0  0
   -0.8594    0.7408   -2.2620 H   0  0  0  0  0  0  0  0  0  0  0  0
   -1.5117    1.3086    3.2074 H   0  0  0  0  0  0  0  0  0  0  0  0
   -2.8897    0.1950    2.9694 H   0  0  0  0  0  0  0  0  0  0  0  0
   -0.8263   -1.0034    3.7613 H   0  0  0  0  0  0  0  0  0  0  0  0
   -1.3625   -1.5759    2.1739 H   0  0  0  0  0  0  0  0  0  0  0  0
    0.0178   -0.4777    2.2949 H   0  0  0  0  0  0  0  0  0  0  0  0
   -3.3792   -2.6133   -0.1710 H   0  0  0  0  0  0  0  0  0  0  0  0
   -4.9137   -2.2383    0.6703 H   0  0  0  0  0  0  0  0  0  0  0  0
   -5.2899   -2.4029   -1.7796 H   0  0  0  0  0  0  0  0  0  0  0  0
   -5.5358   -0.7295   -1.2483 H   0  0  0  0  0  0  0  0  0  0  0  0
   -4.0425   -1.1812   -2.0715 H   0  0  0  0  0  0  0  0  0  0  0  0
  1  2  1  0  0  0  0
  2  3  1  0  0  0  0
  3  4  1  0  0  0  0
  4  5  2  0  0  0  0
  4  6  2  0  0  0  0
  6  7  1  0  0  0  0
  7  8  1  0  0  0  0
  4  9  1  0  0  0  0
  9 10  1  0  0  0  0
 10 11  1  0  0  0  0
 11 12  1  0  0  0  0
 12 13  2  0  0  0  0
 12 14  2  0  0  0  0
 14 15  1  0  0  0  0
 15 16  1  0  0  0  0
 12 17  2  0  0  0  0
 17 18  1  0  0  0  0
 18 19  1  0  0  0  0
  1 20  1  0  0  0  0
  1 21  1  0  0  0  0
  1 22  1  0  0  0  0
  2 23  1  0  0  0  0
  2 24  1  0  0  0  0
  7 25  1  0  0  0  0
  7 26  1  0  0  0  0
  8 27  1  0  0  0  0
  8 28  1  0  0  0  0
  8 29  1  0  0  0  0
 10 30  1  0  0  0  0
 10 31  1  0  0  0  0
 15 32  1  0  0  0  0
 15 33  1  0  0  0  0
 16 34  1  0  0  0  0
 16 35  1  0  0  0  0
 16 36  1  0  0  0  0
 18 37  1  0  0  0  0
 18 38  1  0  0  0  0
 19 39  1  0  0  0  0
 19 40  1  0  0  0  0
 19 41  1  0  0  0  0
M  END
