 xtb: 6.7.1 (edcfbbe)
          04092505203D

 41 40  0     0  0            999 V2000
    4.9585    1.3070   -0.3124 C   0  0  0  0  0  0  0  0  0  0  0  0
    4.2943    0.3606   -1.2898 C   0  0  0  0  0  0  0  0  0  0  0  0
    3.4800   -0.6341   -0.6400 O   0  0  0  0  0  0  0  0  0  0  0  0
    2.3124   -0.3316    0.3926 P   0  0  0  0  0  0  0  0  0  0  0  0
    2.7833    0.1353    2.2312 S   0  0  0  0  0  0  0  0  0  0  0  0
    1.5065   -1.6861    0.3852 O   0  0  0  0  0  0  0  0  0  0  0  0
    1.1801   -2.4315   -0.8118 C   0  0  0  0  0  0  0  0  0  0  0  0
    2.1728   -3.5548   -1.0235 C   0  0  0  0  0  0  0  0  0  0  0  0
    1.1391    1.1237   -0.6488 S   0  0  0  0  0  0  0  0  0  0  0  0
    0.2622    1.7509    0.7995 C   0  0  0  0  0  0  0  0  0  0  0  0
   -0.9111    0.5653    1.5172 S   0  0  0  0  0  0  0  0  0  0  0  0
   -2.2482    0.3637   -0.1182 P   0  0  0  0  0  0  0  0  0  0  0  0
   -1.7788   -0.7661   -1.6541 S   0  0  0  0  0  0  0  0  0  0  0  0
   -2.4853    1.8958   -0.4336 O   0  0  0  0  0  0  0  0  0  0  0  0
   -3.0076    2.3389   -1.7056 C   0  0  0  0  0  0  0  0  0  0  0  0
   -4.4633    1.9599   -1.8750 C   0  0  0  0  0  0  0  0  0  0  0  0
   -3.6077   -0.0664    0.5869 O   0  0  0  0  0  0  0  0  0  0  0  0
   -3.9580   -1.4441    0.7886 C   0  0  0  0  0  0  0  0  0  0  0  0
   -3.0950   -2.0910    1.8532 C   0  0  0  0  0  0  0  0  0  0  0  0
    5.6272    1.9702   -0.8516 H   0  0  0  0  0  0  0  0  0  0  0  0
    4.2076    1.9024    0.2049 H   0  0  0  0  0  0  0  0  0  0  0  0
    5.5239    0.7497    0.4307 H   0  0  0  0  0  0  0  0  0  0  0  0
    5.0317   -0.2299   -1.8364 H   0  0  0  0  0  0  0  0  0  0  0  0
    3.6635    0.9102   -1.9942 H   0  0  0  0  0  0  0  0  0  0  0  0
    0.1733   -2.8164   -0.6374 H   0  0  0  0  0  0  0  0  0  0  0  0
    1.1538   -1.7510   -1.6672 H   0  0  0  0  0  0  0  0  0  0  0  0
    3.1683   -3.1510   -1.1880 H   0  0  0  0  0  0  0  0  0  0  0  0
    2.1955   -4.1979   -0.1481 H   0  0  0  0  0  0  0  0  0  0  0  0
    1.8700   -4.1345   -1.8897 H   0  0  0  0  0  0  0  0  0  0  0  0
   -0.2635    2.6512    0.4932 H   0  0  0  0  0  0  0  0  0  0  0  0
    0.9837    1.9562    1.5923 H   0  0  0  0  0  0  0  0  0  0  0  0
   -2.8701    3.4206   -1.6823 H   0  0  0  0  0  0  0  0  0  0  0  0
   -2.3971    1.9015   -2.5022 H   0  0  0  0  0  0  0  0  0  0  0  0
   -5.0455    2.3176   -1.0299 H   0  0  0  0  0  0  0  0  0  0  0  0
   -4.8452    2.3994   -2.7912 H   0  0  0  0  0  0  0  0  0  0  0  0
   -4.5592    0.8767   -1.9351 H   0  0  0  0  0  0  0  0  0  0  0  0
   -5.0072   -1.4123    1.0849 H   0  0  0  0  0  0  0  0  0  0  0  0
   -3.8545   -1.9723   -0.1656 H   0  0  0  0  0  0  0  0  0  0  0  0
   -3.4309   -3.1084    2.0260 H   0  0  0  0  0  0  0  0  0  0  0  0
   -2.0542   -2.1115    1.5277 H   0  0  0  0  0  0  0  0  0  0  0  0
   -3.1521   -1.5276    2.7812 H   0  0  0  0  0  0  0  0  0  0  0  0
  1  2  1  0  0  0  0
  2  3  1  0  0  0  0
  3  4  2  0  0  0  0
  4  5  2  0  0  0  0
  4  6  2  0  0  0  0
  6  7  1  0  0  0  0
  7  8  1  0  0  0  0
  4  9  1  0  0  0  0
  9 10  1  0  0  0  0
 10 11  1  0  0  0  0
 11 12  1  0  0  0  0
 12 13  2  0  0  0  0
 12 14  2  0  0  0  0
 14 15  1  0  0  0  0
 15 16  1  0  0  0  0
 12 17  2  0  0  0  0
 17 18  1  0  0  0  0
 18 19  1  0  0  0  0
  1 20  1  0  0  0  0
  1 21  1  0  0  0  0
  1 22  1  0  0  0  0
  2 23  1  0  0  0  0
  2 24  1  0  0  0  0
  7 25  1  0  0  0  0
  7 26  1  0  0  0  0
  8 27  1  0  0  0  0
  8 28  1  0  0  0  0
  8 29  1  0  0  0  0
 10 30  1  0  0  0  0
 10 31  1  0  0  0  0
 15 32  1  0  0  0  0
 15 33  1  0  0  0  0
 16 34  1  0  0  0  0
 16 35  1  0  0  0  0
 16 36  1  0  0  0  0
 18 37  1  0  0  0  0
 18 38  1  0  0  0  0
 19 39  1  0  0  0  0
 19 40  1  0  0  0  0
 19 41  1  0  0  0  0
M  END
