 xtb: 6.7.1 (edcfbbe)
          04092505213D

 41 40  0     0  0            999 V2000
    3.1591    1.8361   -1.3395 C   0  0  0  0  0  0  0  0  0  0  0  0
    2.9645    2.0266    0.1524 C   0  0  0  0  0  0  0  0  0  0  0  0
    3.1075    0.7815    0.8605 O   0  0  0  0  0  0  0  0  0  0  0  0
    1.8679   -0.1460    1.2184 P   0  0  0  0  0  0  0  0  0  0  0  0
    0.3524    0.7477    2.0694 S   0  0  0  0  0  0  0  0  0  0  0  0
    2.4922   -1.2181    2.1918 O   0  0  0  0  0  0  0  0  0  0  0  0
    3.6462   -2.0338    1.8711 C   0  0  0  0  0  0  0  0  0  0  0  0
    4.9236   -1.3870    2.3656 C   0  0  0  0  0  0  0  0  0  0  0  0
    1.4758   -1.2133   -0.5892 S   0  0  0  0  0  0  0  0  0  0  0  0
   -0.1448   -1.8932   -0.1205 C   0  0  0  0  0  0  0  0  0  0  0  0
   -1.3482   -1.8093   -1.4771 S   0  0  0  0  0  0  0  0  0  0  0  0
   -2.0978    0.1387   -1.1726 P   0  0  0  0  0  0  0  0  0  0  0  0
   -3.5243    0.7259   -2.3765 S   0  0  0  0  0  0  0  0  0  0  0  0
   -0.7385    0.9570   -1.2450 O   0  0  0  0  0  0  0  0  0  0  0  0
   -0.7414    2.3736   -1.5221 C   0  0  0  0  0  0  0  0  0  0  0  0
   -1.3496    3.1729   -0.3893 C   0  0  0  0  0  0  0  0  0  0  0  0
   -2.4540    0.2174    0.3800 O   0  0  0  0  0  0  0  0  0  0  0  0
   -3.7750   -0.0516    0.8711 C   0  0  0  0  0  0  0  0  0  0  0  0
   -4.1177   -1.5264    0.7967 C   0  0  0  0  0  0  0  0  0  0  0  0
    3.1324    2.8048   -1.8289 H   0  0  0  0  0  0  0  0  0  0  0  0
    4.1198    1.3669   -1.5324 H   0  0  0  0  0  0  0  0  0  0  0  0
    2.3770    1.2030   -1.7537 H   0  0  0  0  0  0  0  0  0  0  0  0
    1.9815    2.4512    0.3807 H   0  0  0  0  0  0  0  0  0  0  0  0
    3.7407    2.6701    0.5710 H   0  0  0  0  0  0  0  0  0  0  0  0
    3.4572   -2.9791    2.3829 H   0  0  0  0  0  0  0  0  0  0  0  0
    3.6751   -2.1945    0.7896 H   0  0  0  0  0  0  0  0  0  0  0  0
    4.8524   -1.1898    3.4318 H   0  0  0  0  0  0  0  0  0  0  0  0
    5.7553   -2.0597    2.1807 H   0  0  0  0  0  0  0  0  0  0  0  0
    5.0988   -0.4487    1.8470 H   0  0  0  0  0  0  0  0  0  0  0  0
   -0.5213   -1.3278    0.7348 H   0  0  0  0  0  0  0  0  0  0  0  0
   -0.0317   -2.9494    0.1080 H   0  0  0  0  0  0  0  0  0  0  0  0
    0.3121    2.6145   -1.6696 H   0  0  0  0  0  0  0  0  0  0  0  0
   -1.2947    2.5387   -2.4521 H   0  0  0  0  0  0  0  0  0  0  0  0
   -1.1932    4.2317   -0.5693 H   0  0  0  0  0  0  0  0  0  0  0  0
   -2.4193    2.9769   -0.3300 H   0  0  0  0  0  0  0  0  0  0  0  0
   -0.8946    2.8919    0.5583 H   0  0  0  0  0  0  0  0  0  0  0  0
   -3.7511    0.3088    1.9007 H   0  0  0  0  0  0  0  0  0  0  0  0
   -4.4884    0.5369    0.2847 H   0  0  0  0  0  0  0  0  0  0  0  0
   -3.3804   -2.1165    1.3355 H   0  0  0  0  0  0  0  0  0  0  0  0
   -5.0965   -1.6890    1.2363 H   0  0  0  0  0  0  0  0  0  0  0  0
   -4.1391   -1.8502   -0.2438 H   0  0  0  0  0  0  0  0  0  0  0  0
  1  2  1  0  0  0  0
  2  3  1  0  0  0  0
  3  4  2  0  0  0  0
  4  5  2  0  0  0  0
  4  6  2  0  0  0  0
  6  7  1  0  0  0  0
  7  8  1  0  0  0  0
  4  9  1  0  0  0  0
  9 10  1  0  0  0  0
 10 11  1  0  0  0  0
 11 12  1  0  0  0  0
 12 13  2  0  0  0  0
 12 14  2  0  0  0  0
 14 15  1  0  0  0  0
 15 16  1  0  0  0  0
 12 17  2  0  0  0  0
 17 18  1  0  0  0  0
 18 19  1  0  0  0  0
  1 20  1  0  0  0  0
  1 21  1  0  0  0  0
  1 22  1  0  0  0  0
  2 23  1  0  0  0  0
  2 24  1  0  0  0  0
  7 25  1  0  0  0  0
  7 26  1  0  0  0  0
  8 27  1  0  0  0  0
  8 28  1  0  0  0  0
  8 29  1  0  0  0  0
 10 30  1  0  0  0  0
 10 31  1  0  0  0  0
 15 32  1  0  0  0  0
 15 33  1  0  0  0  0
 16 34  1  0  0  0  0
 16 35  1  0  0  0  0
 16 36  1  0  0  0  0
 18 37  1  0  0  0  0
 18 38  1  0  0  0  0
 19 39  1  0  0  0  0
 19 40  1  0  0  0  0
 19 41  1  0  0  0  0
M  END
