 xtb: 6.7.1 (edcfbbe)
          04032519443D

 21 21  0     0  0            999 V2000
    2.7830    0.8008   -0.0014 C   0  0  0  0  0  0  0  0  0  0  0  0
    1.3394    0.3949    0.0008 C   0  0  0  0  0  0  0  0  0  0  0  0
    0.3275    1.3404    0.0035 C   0  0  0  0  0  0  0  0  0  0  0  0
   -1.0114    0.9626    0.0041 C   0  0  0  0  0  0  0  0  0  0  0  0
   -1.3242   -0.3865    0.0015 C   0  0  0  0  0  0  0  0  0  0  0  0
   -0.3276   -1.3571   -0.0013 C   0  0  0  0  0  0  0  0  0  0  0  0
    0.9971   -0.9535   -0.0015 C   0  0  0  0  0  0  0  0  0  0  0  0
   -0.6978   -2.8103   -0.0002 C   0  0  0  0  0  0  0  0  0  0  0  0
   -2.0857    2.0089   -0.0033 C   0  0  0  0  0  0  0  0  0  0  0  0
    2.8828    1.8824    0.0328 H   0  0  0  0  0  0  0  0  0  0  0  0
    3.2971    0.3745    0.8586 H   0  0  0  0  0  0  0  0  0  0  0  0
    3.2763    0.4333   -0.9001 H   0  0  0  0  0  0  0  0  0  0  0  0
    0.5782    2.3922    0.0058 H   0  0  0  0  0  0  0  0  0  0  0  0
   -2.3604   -0.6952    0.0021 H   0  0  0  0  0  0  0  0  0  0  0  0
    1.7827   -1.6963   -0.0030 H   0  0  0  0  0  0  0  0  0  0  0  0
   -1.3323   -3.0399   -0.8547 H   0  0  0  0  0  0  0  0  0  0  0  0
    0.1887   -3.4373   -0.0444 H   0  0  0  0  0  0  0  0  0  0  0  0
   -1.2541   -3.0564    0.9032 H   0  0  0  0  0  0  0  0  0  0  0  0
   -3.0651    1.5612    0.1425 H   0  0  0  0  0  0  0  0  0  0  0  0
   -1.9113    2.7392    0.7846 H   0  0  0  0  0  0  0  0  0  0  0  0
   -2.0855    2.5388   -0.9552 H   0  0  0  0  0  0  0  0  0  0  0  0
  1  2  1  0  0  0  0
  2  3  4  0  0  0  0
  3  4  4  0  0  0  0
  4  5  4  0  0  0  0
  5  6  4  0  0  0  0
  2  7  4  0  0  0  0
  6  7  4  0  0  0  0
  6  8  1  0  0  0  0
  4  9  1  0  0  0  0
  1 10  1  0  0  0  0
  1 11  1  0  0  0  0
  1 12  1  0  0  0  0
  3 13  1  0  0  0  0
  5 14  1  0  0  0  0
  7 15  1  0  0  0  0
  8 16  1  0  0  0  0
  8 17  1  0  0  0  0
  8 18  1  0  0  0  0
  9 19  1  0  0  0  0
  9 20  1  0  0  0  0
  9 21  1  0  0  0  0
M  END
