 xtb: 6.7.1 (edcfbbe)
          04092505203D

 41 40  0     0  0            999 V2000
    4.5594    1.2518   -1.5358 C   0  0  0  0  0  0  0  0  0  0  0  0
    4.6573   -0.0435   -0.7559 C   0  0  0  0  0  0  0  0  0  0  0  0
    3.3946   -0.7285   -0.6811 O   0  0  0  0  0  0  0  0  0  0  0  0
    2.1710   -0.1655    0.1619 P   0  0  0  0  0  0  0  0  0  0  0  0
    2.6570    0.6822    1.8639 S   0  0  0  0  0  0  0  0  0  0  0  0
    1.2242   -1.4297    0.2476 O   0  0  0  0  0  0  0  0  0  0  0  0
    1.2535   -2.3580    1.3495 C   0  0  0  0  0  0  0  0  0  0  0  0
    2.5655   -3.1094    1.4233 C   0  0  0  0  0  0  0  0  0  0  0  0
    1.0832    0.9967   -1.2202 S   0  0  0  0  0  0  0  0  0  0  0  0
    0.0748    1.8856    0.0048 C   0  0  0  0  0  0  0  0  0  0  0  0
   -0.9781    0.8167    1.0170 S   0  0  0  0  0  0  0  0  0  0  0  0
   -2.2263    0.0111   -0.5316 P   0  0  0  0  0  0  0  0  0  0  0  0
   -1.5194   -1.4949   -1.5664 S   0  0  0  0  0  0  0  0  0  0  0  0
   -2.5957    1.2500   -1.4378 O   0  0  0  0  0  0  0  0  0  0  0  0
   -3.7153    2.1484   -1.2245 C   0  0  0  0  0  0  0  0  0  0  0  0
   -3.5758    2.9795    0.0338 C   0  0  0  0  0  0  0  0  0  0  0  0
   -3.5902   -0.3057    0.2213 O   0  0  0  0  0  0  0  0  0  0  0  0
   -3.8245   -1.5730    0.8575 C   0  0  0  0  0  0  0  0  0  0  0  0
   -2.9595   -1.7505    2.0883 C   0  0  0  0  0  0  0  0  0  0  0  0
    3.9441    1.9679   -0.9923 H   0  0  0  0  0  0  0  0  0  0  0  0
    5.5530    1.6683   -1.6671 H   0  0  0  0  0  0  0  0  0  0  0  0
    4.1096    1.0733   -2.5095 H   0  0  0  0  0  0  0  0  0  0  0  0
    5.0062    0.1484    0.2640 H   0  0  0  0  0  0  0  0  0  0  0  0
    5.3158   -0.7616   -1.2465 H   0  0  0  0  0  0  0  0  0  0  0  0
    1.0708   -1.7995    2.2740 H   0  0  0  0  0  0  0  0  0  0  0  0
    0.4156   -3.0264    1.1429 H   0  0  0  0  0  0  0  0  0  0  0  0
    2.5054   -3.8618    2.2034 H   0  0  0  0  0  0  0  0  0  0  0  0
    2.7758   -3.5883    0.4703 H   0  0  0  0  0  0  0  0  0  0  0  0
    3.3747   -2.4183    1.6578 H   0  0  0  0  0  0  0  0  0  0  0  0
   -0.5317    2.5877   -0.5614 H   0  0  0  0  0  0  0  0  0  0  0  0
    0.7292    2.4003    0.7084 H   0  0  0  0  0  0  0  0  0  0  0  0
   -3.7068    2.7688   -2.1220 H   0  0  0  0  0  0  0  0  0  0  0  0
   -4.6279    1.5512   -1.1935 H   0  0  0  0  0  0  0  0  0  0  0  0
   -3.5485    2.3366    0.9105 H   0  0  0  0  0  0  0  0  0  0  0  0
   -2.6696    3.5793    0.0073 H   0  0  0  0  0  0  0  0  0  0  0  0
   -4.4325    3.6422    0.1098 H   0  0  0  0  0  0  0  0  0  0  0  0
   -4.8858   -1.5499    1.1079 H   0  0  0  0  0  0  0  0  0  0  0  0
   -3.6277   -2.3670    0.1297 H   0  0  0  0  0  0  0  0  0  0  0  0
   -3.1047   -0.9244    2.7795 H   0  0  0  0  0  0  0  0  0  0  0  0
   -3.2146   -2.6836    2.5797 H   0  0  0  0  0  0  0  0  0  0  0  0
   -1.9095   -1.7790    1.7972 H   0  0  0  0  0  0  0  0  0  0  0  0
  1  2  1  0  0  0  0
  2  3  1  0  0  0  0
  3  4  2  0  0  0  0
  4  5  2  0  0  0  0
  4  6  2  0  0  0  0
  6  7  1  0  0  0  0
  7  8  1  0  0  0  0
  4  9  1  0  0  0  0
  9 10  1  0  0  0  0
 10 11  1  0  0  0  0
 11 12  1  0  0  0  0
 12 13  2  0  0  0  0
 12 14  2  0  0  0  0
 14 15  1  0  0  0  0
 15 16  1  0  0  0  0
 12 17  2  0  0  0  0
 17 18  1  0  0  0  0
 18 19  1  0  0  0  0
  1 20  1  0  0  0  0
  1 21  1  0  0  0  0
  1 22  1  0  0  0  0
  2 23  1  0  0  0  0
  2 24  1  0  0  0  0
  7 25  1  0  0  0  0
  7 26  1  0  0  0  0
  8 27  1  0  0  0  0
  8 28  1  0  0  0  0
  8 29  1  0  0  0  0
 10 30  1  0  0  0  0
 10 31  1  0  0  0  0
 15 32  1  0  0  0  0
 15 33  1  0  0  0  0
 16 34  1  0  0  0  0
 16 35  1  0  0  0  0
 16 36  1  0  0  0  0
 18 37  1  0  0  0  0
 18 38  1  0  0  0  0
 19 39  1  0  0  0  0
 19 40  1  0  0  0  0
 19 41  1  0  0  0  0
M  END
