41
 xtb: 6.7.1 (edcfbbe)
C            4.20629431417430       -0.18702292916469       -2.42145113079044
C            4.60109335332593       -0.29694403789123       -0.96920959008817
O            3.44554853809409       -0.51080860846191       -0.08848360495809
P            2.42800633755512        0.67285212061866        0.31662192999043
S            3.18053682354952        2.45773572851913        0.51433866811906
O            1.70965635325626        0.00661424667589        1.58784115575021
C            2.26219527392267        0.14265027366890        2.94695438162617
C            3.53149976118541       -0.65080804975238        3.13681399937354
S            0.87370373422446        0.70024691303300       -1.10473924608791
C            0.40888001527795       -1.08112972796205       -1.21488151840922
S           -0.81732162174995       -1.69863438377539       -0.00288066168619
P           -2.57310675227603       -0.65527923868631       -0.59810632897573
S           -2.57263909329420       -0.05122824533280       -2.45220578149235
O           -2.86472934653735        0.47684604665573        0.50561126762184
C           -2.38838753242169        1.86232611253916        0.40204098549765
C           -1.54477866296143        2.18010031005910        1.61008593732410
O           -3.61493520723854       -1.78541856476888       -0.13715566790431
C           -4.97569870357371       -1.47853387683265        0.34584414096880
C           -5.84584268670735       -0.86104515259809       -0.71989851623478
H            3.60874548685734       -1.04887921916866       -2.73342095504652
H            3.64237703512844        0.72790499748987       -2.62027662032861
H            5.11869588575744       -0.16305231476040       -3.02617533099117
H            5.13614222665286        0.59225329075529       -0.62195624744172
H            5.22092660906958       -1.17748893110031       -0.78929270019016
H            2.40942291582782        1.20849272494078        3.14726316483055
H            1.45607989491766       -0.23074863753049        3.58144877930993
H            3.81537872185004       -0.59780595336344        4.19303196229501
H            3.38134705783485       -1.70157004982683        2.87274252929974
H            4.35682690958477       -0.24715668565093        2.54335209939194
H            1.29750228181304       -1.70540314308811       -1.08450293060175
H            0.01873253383910       -1.22299889101664       -2.22598492489502
H           -1.83252241805300        1.98668050867614       -0.53093214091519
H           -3.28887902154916        2.48079311313560        0.35892905389302
H           -1.21793803262482        3.22339417703742        1.54851850528339
H           -2.11749419721768        2.05283864451204        2.53316928796213
H           -0.65619256068142        1.54280704704026        1.64945037472737
H           -5.35167966207639       -2.45670888467638        0.65133357591247
H           -4.88760232638350       -0.83873333660779        1.22719641750120
H           -5.50233622921074        0.13967843912251       -0.99615442879054
H           -5.87878524435954       -1.48837270072926       -1.61509318703190
H           -6.86243141177085       -0.77338249599661       -0.32255078439234
