 xtb: 6.7.1 (edcfbbe)
          04092505203D

 41 40  0     0  0            999 V2000
    4.3359   -1.4452   -2.2189 C   0  0  0  0  0  0  0  0  0  0  0  0
    4.8688   -1.0841   -0.8477 C   0  0  0  0  0  0  0  0  0  0  0  0
    3.8306   -1.0314    0.1477 O   0  0  0  0  0  0  0  0  0  0  0  0
    2.6677    0.0510    0.1152 P   0  0  0  0  0  0  0  0  0  0  0  0
    3.1895    1.8632   -0.4015 S   0  0  0  0  0  0  0  0  0  0  0  0
    2.0996    0.0171    1.5837 O   0  0  0  0  0  0  0  0  0  0  0  0
    1.6229   -1.1772    2.2521 C   0  0  0  0  0  0  0  0  0  0  0  0
    2.7169   -1.7986    3.0953 C   0  0  0  0  0  0  0  0  0  0  0  0
    1.1525   -0.8556   -1.0848 S   0  0  0  0  0  0  0  0  0  0  0  0
    0.1084    0.6151   -1.1822 C   0  0  0  0  0  0  0  0  0  0  0  0
   -0.8423    0.9083    0.3320 S   0  0  0  0  0  0  0  0  0  0  0  0
   -2.8135    0.4471   -0.3901 P   0  0  0  0  0  0  0  0  0  0  0  0
   -2.9633   -0.0238   -2.2811 S   0  0  0  0  0  0  0  0  0  0  0  0
   -3.6448    1.7405   -0.0462 O   0  0  0  0  0  0  0  0  0  0  0  0
   -3.6405    2.4318    1.2255 C   0  0  0  0  0  0  0  0  0  0  0  0
   -4.6127    1.8097    2.2066 C   0  0  0  0  0  0  0  0  0  0  0  0
   -3.4055   -0.6306    0.6210 O   0  0  0  0  0  0  0  0  0  0  0  0
   -3.2593   -2.0463    0.4133 C   0  0  0  0  0  0  0  0  0  0  0  0
   -1.8375   -2.5134    0.6491 C   0  0  0  0  0  0  0  0  0  0  0  0
    3.7206   -0.6345   -2.6066 H   0  0  0  0  0  0  0  0  0  0  0  0
    5.1690   -1.6055   -2.8958 H   0  0  0  0  0  0  0  0  0  0  0  0
    3.7336   -2.3488   -2.1666 H   0  0  0  0  0  0  0  0  0  0  0  0
    5.3703   -0.1118   -0.8736 H   0  0  0  0  0  0  0  0  0  0  0  0
    5.5531   -1.8447   -0.4692 H   0  0  0  0  0  0  0  0  0  0  0  0
    0.7942   -0.8227    2.8682 H   0  0  0  0  0  0  0  0  0  0  0  0
    1.2557   -1.8815    1.5004 H   0  0  0  0  0  0  0  0  0  0  0  0
    3.1063   -1.0673    3.7983 H   0  0  0  0  0  0  0  0  0  0  0  0
    2.3061   -2.6403    3.6440 H   0  0  0  0  0  0  0  0  0  0  0  0
    3.5298   -2.1447    2.4628 H   0  0  0  0  0  0  0  0  0  0  0  0
   -0.5852    0.4674   -2.0136 H   0  0  0  0  0  0  0  0  0  0  0  0
    0.7485    1.4828   -1.3466 H   0  0  0  0  0  0  0  0  0  0  0  0
   -2.6210    2.4308    1.6220 H   0  0  0  0  0  0  0  0  0  0  0  0
   -3.9335    3.4510    0.9669 H   0  0  0  0  0  0  0  0  0  0  0  0
   -4.6524    2.4247    3.1003 H   0  0  0  0  0  0  0  0  0  0  0  0
   -5.6038    1.7562    1.7642 H   0  0  0  0  0  0  0  0  0  0  0  0
   -4.2932    0.8070    2.4754 H   0  0  0  0  0  0  0  0  0  0  0  0
   -3.9517   -2.4879    1.1315 H   0  0  0  0  0  0  0  0  0  0  0  0
   -3.5805   -2.2825   -0.6059 H   0  0  0  0  0  0  0  0  0  0  0  0
   -1.8074   -3.5977    0.6197 H   0  0  0  0  0  0  0  0  0  0  0  0
   -1.1811   -2.1270   -0.1299 H   0  0  0  0  0  0  0  0  0  0  0  0
   -1.4849   -2.1690    1.6180 H   0  0  0  0  0  0  0  0  0  0  0  0
  1  2  1  0  0  0  0
  2  3  1  0  0  0  0
  3  4  2  0  0  0  0
  4  5  2  0  0  0  0
  4  6  2  0  0  0  0
  6  7  1  0  0  0  0
  7  8  1  0  0  0  0
  4  9  1  0  0  0  0
  9 10  1  0  0  0  0
 10 11  1  0  0  0  0
 11 12  1  0  0  0  0
 12 13  2  0  0  0  0
 12 14  2  0  0  0  0
 14 15  1  0  0  0  0
 15 16  1  0  0  0  0
 12 17  2  0  0  0  0
 17 18  1  0  0  0  0
 18 19  1  0  0  0  0
  1 20  1  0  0  0  0
  1 21  1  0  0  0  0
  1 22  1  0  0  0  0
  2 23  1  0  0  0  0
  2 24  1  0  0  0  0
  7 25  1  0  0  0  0
  7 26  1  0  0  0  0
  8 27  1  0  0  0  0
  8 28  1  0  0  0  0
  8 29  1  0  0  0  0
 10 30  1  0  0  0  0
 10 31  1  0  0  0  0
 15 32  1  0  0  0  0
 15 33  1  0  0  0  0
 16 34  1  0  0  0  0
 16 35  1  0  0  0  0
 16 36  1  0  0  0  0
 18 37  1  0  0  0  0
 18 38  1  0  0  0  0
 19 39  1  0  0  0  0
 19 40  1  0  0  0  0
 19 41  1  0  0  0  0
M  END
