22
 xtb: 6.7.1 (edcfbbe)
C            0.95599559384133        1.62202303658394       -1.80223579741899
C            2.07680534514508        1.76394561937399       -1.09162912724954
C            2.42641249858758        0.53394080171262       -0.32802189241778
H            2.62835494812385        0.70277848818002        0.73130180281154
C            1.28403181245943       -0.45360741921510       -0.61508093568951
H            1.65351162837941       -1.39780080147067       -1.01392201282675
C            0.33656972288723        0.27319933619036       -1.62546583474275
H            0.21774572718191       -0.26687557307029       -2.56867432477121
C           -1.03968174981531        0.27048684913664       -0.86597920836605
C           -0.89996463254270        1.18416977424417        0.33779965197913
C           -0.07612200121732        0.58429351483657        1.20574200854127
C            0.34655034255156       -0.74420408854153        0.59407764152373
C           -0.98659067199535       -1.10921546574753       -0.13930877812557
Cl          -2.36290117605648       -1.40670956127020        0.96628002096592
Cl          -0.85384689449165       -2.50627122009011       -1.24547363616633
Cl           0.96419157864154       -1.95200968757715        1.73456946078933
Cl           0.50802116666904        1.19820499018567        2.68742348919917
Cl          -1.56917983215124        2.74772927731925        0.43964092803120
Cl          -2.45463138016905        0.55683907365881       -1.89147353834125
Cl           4.04880215783360       -0.14062438723444       -0.95618092624929
H            0.51558374792231        2.38369898391141       -2.43640297054311
H            2.69985216494255        2.65016885115413       -1.05796856188804
