 xtb: 6.7.1 (edcfbbe)
          04092507313D

 38 37  0     0  0            999 V2000
    5.3644   -2.2160   -1.0294 C   0  0  0  0  0  0  0  0  0  0  0  0
    4.0697   -2.9532   -1.3323 C   0  0  0  0  0  0  0  0  0  0  0  0
    3.1241   -2.0803   -1.9821 O   0  0  0  0  0  0  0  0  0  0  0  0
    2.3431   -1.3325   -1.2344 C   0  0  0  0  0  0  0  0  0  0  0  0
    2.3238   -1.3480   -0.0203 O   0  0  0  0  0  0  0  0  0  0  0  0
    1.4588   -0.4301   -2.0694 C   0  0  0  0  0  0  0  0  0  0  0  0
    0.4234    0.2318   -1.1715 C   0  0  0  0  0  0  0  0  0  0  0  0
   -0.1106    1.0222   -1.7092 H   0  0  0  0  0  0  0  0  0  0  0  0
    1.1177    0.8703    0.0218 C   0  0  0  0  0  0  0  0  0  0  0  0
    2.1320    1.5190   -0.0972 O   0  0  0  0  0  0  0  0  0  0  0  0
    0.4606    0.6914    1.1479 O   0  0  0  0  0  0  0  0  0  0  0  0
    1.0136    1.2522    2.3547 C   0  0  0  0  0  0  0  0  0  0  0  0
    0.6864    2.7303    2.4854 C   0  0  0  0  0  0  0  0  0  0  0  0
   -0.8174   -1.0086   -0.6434 S   0  0  0  0  0  0  0  0  0  0  0  0
   -2.1592    0.2764    0.3244 P   0  0  0  0  0  0  0  0  0  0  0  0
   -2.1072    2.1912   -0.1319 S   0  0  0  0  0  0  0  0  0  0  0  0
   -3.5894   -0.3778    0.0058 O   0  0  0  0  0  0  0  0  0  0  0  0
   -4.2281   -0.1981   -1.2625 C   0  0  0  0  0  0  0  0  0  0  0  0
   -2.0368   -0.1155    1.8579 O   0  0  0  0  0  0  0  0  0  0  0  0
   -2.9123    0.4897    2.8246 C   0  0  0  0  0  0  0  0  0  0  0  0
    5.1761   -1.4026   -0.3317 H   0  0  0  0  0  0  0  0  0  0  0  0
    6.0753   -2.9045   -0.5848 H   0  0  0  0  0  0  0  0  0  0  0  0
    5.7843   -1.8055   -1.9434 H   0  0  0  0  0  0  0  0  0  0  0  0
    3.6163   -3.3362   -0.4138 H   0  0  0  0  0  0  0  0  0  0  0  0
    4.2283   -3.7612   -2.0462 H   0  0  0  0  0  0  0  0  0  0  0  0
    0.9879   -1.0071   -2.8640 H   0  0  0  0  0  0  0  0  0  0  0  0
    2.0950    0.3368   -2.5166 H   0  0  0  0  0  0  0  0  0  0  0  0
    0.5569    0.6644    3.1512 H   0  0  0  0  0  0  0  0  0  0  0  0
    2.0949    1.0904    2.3321 H   0  0  0  0  0  0  0  0  0  0  0  0
   -0.3863    2.8881    2.4015 H   0  0  0  0  0  0  0  0  0  0  0  0
    1.0284    3.0886    3.4504 H   0  0  0  0  0  0  0  0  0  0  0  0
    1.1811    3.2946    1.6982 H   0  0  0  0  0  0  0  0  0  0  0  0
   -5.2632   -0.4960   -1.1162 H   0  0  0  0  0  0  0  0  0  0  0  0
   -3.7486   -0.8279   -2.0110 H   0  0  0  0  0  0  0  0  0  0  0  0
   -4.1717    0.8497   -1.5637 H   0  0  0  0  0  0  0  0  0  0  0  0
   -2.9437    1.5714    2.6811 H   0  0  0  0  0  0  0  0  0  0  0  0
   -2.4897    0.2455    3.7958 H   0  0  0  0  0  0  0  0  0  0  0  0
   -3.9150    0.0761    2.7252 H   0  0  0  0  0  0  0  0  0  0  0  0
  1  2  1  0  0  0  0
  2  3  1  0  0  0  0
  3  4  4  0  0  0  0
  4  5  2  0  0  0  0
  4  6  1  0  0  0  0
  6  7  1  0  0  0  0
  7  8  1  0  0  0  0
  7  9  1  0  0  0  0
  9 10  2  0  0  0  0
  9 11  1  0  0  0  0
 11 12  1  0  0  0  0
 12 13  1  0  0  0  0
  7 14  1  0  0  0  0
 14 15  1  0  0  0  0
 15 16  2  0  0  0  0
 15 17  1  0  0  0  0
 17 18  1  0  0  0  0
 15 19  1  0  0  0  0
 19 20  1  0  0  0  0
  1 21  1  0  0  0  0
  1 22  1  0  0  0  0
  1 23  1  0  0  0  0
  2 24  1  0  0  0  0
  2 25  1  0  0  0  0
  6 26  1  0  0  0  0
  6 27  1  0  0  0  0
 12 28  1  0  0  0  0
 12 29  1  0  0  0  0
 13 30  1  0  0  0  0
 13 31  1  0  0  0  0
 13 32  1  0  0  0  0
 18 33  1  0  0  0  0
 18 34  1  0  0  0  0
 18 35  1  0  0  0  0
 20 36  1  0  0  0  0
 20 37  1  0  0  0  0
 20 38  1  0  0  0  0
M  END
