 xtb: 6.7.1 (edcfbbe)
          04092505213D

 41 40  0     0  0            999 V2000
    3.6467   -1.9098   -2.8126 C   0  0  0  0  0  0  0  0  0  0  0  0
    3.9678   -1.9146   -1.3315 C   0  0  0  0  0  0  0  0  0  0  0  0
    3.9489   -0.5551   -0.8195 O   0  0  0  0  0  0  0  0  0  0  0  0
    2.8768   -0.0434    0.2152 P   0  0  0  0  0  0  0  0  0  0  0  0
    3.1046    1.8538    0.6283 S   0  0  0  0  0  0  0  0  0  0  0  0
    3.1170   -1.0465    1.4303 O   0  0  0  0  0  0  0  0  0  0  0  0
    2.6564   -0.7818    2.7665 C   0  0  0  0  0  0  0  0  0  0  0  0
    1.1491   -0.8834    2.8842 C   0  0  0  0  0  0  0  0  0  0  0  0
    1.0004   -0.6289   -0.6342 S   0  0  0  0  0  0  0  0  0  0  0  0
    0.1888    0.9870   -0.7264 C   0  0  0  0  0  0  0  0  0  0  0  0
   -1.0681    1.2277    0.5494 S   0  0  0  0  0  0  0  0  0  0  0  0
   -2.7709    0.4628   -0.5005 P   0  0  0  0  0  0  0  0  0  0  0  0
   -2.5460    0.3610   -2.4451 S   0  0  0  0  0  0  0  0  0  0  0  0
   -3.9858    1.4047   -0.1650 O   0  0  0  0  0  0  0  0  0  0  0  0
   -4.6959    1.4619    1.0967 C   0  0  0  0  0  0  0  0  0  0  0  0
   -3.8186    1.9359    2.2357 C   0  0  0  0  0  0  0  0  0  0  0  0
   -3.1799   -0.8636    0.2805 O   0  0  0  0  0  0  0  0  0  0  0  0
   -2.2998   -1.9681    0.5491 C   0  0  0  0  0  0  0  0  0  0  0  0
   -1.9729   -2.7651   -0.6972 C   0  0  0  0  0  0  0  0  0  0  0  0
    2.6273   -1.5711   -2.9813 H   0  0  0  0  0  0  0  0  0  0  0  0
    4.3281   -1.2466   -3.3382 H   0  0  0  0  0  0  0  0  0  0  0  0
    3.7541   -2.9168   -3.2027 H   0  0  0  0  0  0  0  0  0  0  0  0
    4.9806   -2.2747   -1.1449 H   0  0  0  0  0  0  0  0  0  0  0  0
    3.2525   -2.5197   -0.7707 H   0  0  0  0  0  0  0  0  0  0  0  0
    3.1585   -1.5412    3.3679 H   0  0  0  0  0  0  0  0  0  0  0  0
    3.0017    0.2140    3.0614 H   0  0  0  0  0  0  0  0  0  0  0  0
    0.8054   -1.8322    2.4794 H   0  0  0  0  0  0  0  0  0  0  0  0
    0.8678   -0.8155    3.9301 H   0  0  0  0  0  0  0  0  0  0  0  0
    0.6741   -0.0654    2.3433 H   0  0  0  0  0  0  0  0  0  0  0  0
   -0.2935    1.0599   -1.7032 H   0  0  0  0  0  0  0  0  0  0  0  0
    0.9407    1.7658   -0.5866 H   0  0  0  0  0  0  0  0  0  0  0  0
   -5.5041    2.1660    0.8928 H   0  0  0  0  0  0  0  0  0  0  0  0
   -5.1074    0.4722    1.3017 H   0  0  0  0  0  0  0  0  0  0  0  0
   -4.4277    2.0548    3.1264 H   0  0  0  0  0  0  0  0  0  0  0  0
   -3.0323    1.2111    2.4389 H   0  0  0  0  0  0  0  0  0  0  0  0
   -3.3570    2.8887    1.9887 H   0  0  0  0  0  0  0  0  0  0  0  0
   -1.3863   -1.5830    1.0119 H   0  0  0  0  0  0  0  0  0  0  0  0
   -2.8552   -2.5692    1.2713 H   0  0  0  0  0  0  0  0  0  0  0  0
   -2.8868   -3.0763   -1.1964 H   0  0  0  0  0  0  0  0  0  0  0  0
   -1.3864   -2.1636   -1.3895 H   0  0  0  0  0  0  0  0  0  0  0  0
   -1.3960   -3.6414   -0.4210 H   0  0  0  0  0  0  0  0  0  0  0  0
  1  2  1  0  0  0  0
  2  3  1  0  0  0  0
  3  4  2  0  0  0  0
  4  5  2  0  0  0  0
  4  6  2  0  0  0  0
  6  7  1  0  0  0  0
  7  8  1  0  0  0  0
  4  9  1  0  0  0  0
  9 10  1  0  0  0  0
 10 11  1  0  0  0  0
 11 12  1  0  0  0  0
 12 13  2  0  0  0  0
 12 14  2  0  0  0  0
 14 15  1  0  0  0  0
 15 16  1  0  0  0  0
 12 17  2  0  0  0  0
 17 18  1  0  0  0  0
 18 19  1  0  0  0  0
  1 20  1  0  0  0  0
  1 21  1  0  0  0  0
  1 22  1  0  0  0  0
  2 23  1  0  0  0  0
  2 24  1  0  0  0  0
  7 25  1  0  0  0  0
  7 26  1  0  0  0  0
  8 27  1  0  0  0  0
  8 28  1  0  0  0  0
  8 29  1  0  0  0  0
 10 30  1  0  0  0  0
 10 31  1  0  0  0  0
 15 32  1  0  0  0  0
 15 33  1  0  0  0  0
 16 34  1  0  0  0  0
 16 35  1  0  0  0  0
 16 36  1  0  0  0  0
 18 37  1  0  0  0  0
 18 38  1  0  0  0  0
 19 39  1  0  0  0  0
 19 40  1  0  0  0  0
 19 41  1  0  0  0  0
M  END
