 xtb: 6.7.1 (edcfbbe)
          04092505203D

 41 40  0     0  0            999 V2000
    3.3547   -1.1746   -2.9828 C   0  0  0  0  0  0  0  0  0  0  0  0
    2.1309   -0.6461   -2.2653 C   0  0  0  0  0  0  0  0  0  0  0  0
    2.5176    0.2338   -1.1822 O   0  0  0  0  0  0  0  0  0  0  0  0
    2.5622   -0.2266    0.3251 P   0  0  0  0  0  0  0  0  0  0  0  0
    3.2734    1.1759    1.4848 S   0  0  0  0  0  0  0  0  0  0  0  0
    3.3937   -1.5794    0.2586 O   0  0  0  0  0  0  0  0  0  0  0  0
    4.0050   -2.1708    1.4215 C   0  0  0  0  0  0  0  0  0  0  0  0
    2.9822   -2.6544    2.4285 C   0  0  0  0  0  0  0  0  0  0  0  0
    0.5830   -0.8565    0.7641 S   0  0  0  0  0  0  0  0  0  0  0  0
   -0.0106    0.8104    1.2215 C   0  0  0  0  0  0  0  0  0  0  0  0
   -1.7919    0.8392    1.4226 S   0  0  0  0  0  0  0  0  0  0  0  0
   -2.3463    0.8949   -0.6476 P   0  0  0  0  0  0  0  0  0  0  0  0
   -0.8912    1.2745   -1.9037 S   0  0  0  0  0  0  0  0  0  0  0  0
   -3.4742    1.9840   -0.7358 O   0  0  0  0  0  0  0  0  0  0  0  0
   -4.4923    2.2604    0.2595 C   0  0  0  0  0  0  0  0  0  0  0  0
   -5.2422    1.0215    0.6960 C   0  0  0  0  0  0  0  0  0  0  0  0
   -3.1452   -0.4413   -0.9654 O   0  0  0  0  0  0  0  0  0  0  0  0
   -2.5183   -1.7118   -1.2124 C   0  0  0  0  0  0  0  0  0  0  0  0
   -2.5029   -2.5634    0.0422 C   0  0  0  0  0  0  0  0  0  0  0  0
    3.0365   -1.7723   -3.8310 H   0  0  0  0  0  0  0  0  0  0  0  0
    3.9635   -0.3465   -3.3350 H   0  0  0  0  0  0  0  0  0  0  0  0
    3.9488   -1.7881   -2.3105 H   0  0  0  0  0  0  0  0  0  0  0  0
    1.5254   -1.4617   -1.8593 H   0  0  0  0  0  0  0  0  0  0  0  0
    1.5126   -0.0247   -2.9171 H   0  0  0  0  0  0  0  0  0  0  0  0
    4.5900   -2.9961    1.0134 H   0  0  0  0  0  0  0  0  0  0  0  0
    4.6706   -1.4291    1.8732 H   0  0  0  0  0  0  0  0  0  0  0  0
    2.2491   -3.2965    1.9468 H   0  0  0  0  0  0  0  0  0  0  0  0
    3.4884   -3.2085    3.2124 H   0  0  0  0  0  0  0  0  0  0  0  0
    2.4678   -1.8051    2.8754 H   0  0  0  0  0  0  0  0  0  0  0  0
    0.2793    1.5060    0.4306 H   0  0  0  0  0  0  0  0  0  0  0  0
    0.4304    1.0951    2.1749 H   0  0  0  0  0  0  0  0  0  0  0  0
   -4.0074    2.7427    1.1118 H   0  0  0  0  0  0  0  0  0  0  0  0
   -5.1449    2.9721   -0.2482 H   0  0  0  0  0  0  0  0  0  0  0  0
   -6.0494    1.3137    1.3606 H   0  0  0  0  0  0  0  0  0  0  0  0
   -5.6541    0.5062   -0.1676 H   0  0  0  0  0  0  0  0  0  0  0  0
   -4.5733    0.3477    1.2282 H   0  0  0  0  0  0  0  0  0  0  0  0
   -3.1275   -2.1703   -1.9937 H   0  0  0  0  0  0  0  0  0  0  0  0
   -1.5062   -1.5435   -1.5951 H   0  0  0  0  0  0  0  0  0  0  0  0
   -1.8670   -2.1160    0.8032 H   0  0  0  0  0  0  0  0  0  0  0  0
   -3.5106   -2.6641    0.4346 H   0  0  0  0  0  0  0  0  0  0  0  0
   -2.1129   -3.5458   -0.2024 H   0  0  0  0  0  0  0  0  0  0  0  0
  1  2  1  0  0  0  0
  2  3  1  0  0  0  0
  3  4  2  0  0  0  0
  4  5  2  0  0  0  0
  4  6  2  0  0  0  0
  6  7  1  0  0  0  0
  7  8  1  0  0  0  0
  4  9  1  0  0  0  0
  9 10  1  0  0  0  0
 10 11  1  0  0  0  0
 11 12  1  0  0  0  0
 12 13  2  0  0  0  0
 12 14  2  0  0  0  0
 14 15  1  0  0  0  0
 15 16  1  0  0  0  0
 12 17  2  0  0  0  0
 17 18  1  0  0  0  0
 18 19  1  0  0  0  0
  1 20  1  0  0  0  0
  1 21  1  0  0  0  0
  1 22  1  0  0  0  0
  2 23  1  0  0  0  0
  2 24  1  0  0  0  0
  7 25  1  0  0  0  0
  7 26  1  0  0  0  0
  8 27  1  0  0  0  0
  8 28  1  0  0  0  0
  8 29  1  0  0  0  0
 10 30  1  0  0  0  0
 10 31  1  0  0  0  0
 15 32  1  0  0  0  0
 15 33  1  0  0  0  0
 16 34  1  0  0  0  0
 16 35  1  0  0  0  0
 16 36  1  0  0  0  0
 18 37  1  0  0  0  0
 18 38  1  0  0  0  0
 19 39  1  0  0  0  0
 19 40  1  0  0  0  0
 19 41  1  0  0  0  0
M  END
