 xtb: 6.7.1 (edcfbbe)
          04092505203D

 41 40  0     0  0            999 V2000
    5.7896   -0.3426    0.2424 C   0  0  0  0  0  0  0  0  0  0  0  0
    4.4471   -0.7626   -0.3212 C   0  0  0  0  0  0  0  0  0  0  0  0
    3.4280    0.0268    0.3232 O   0  0  0  0  0  0  0  0  0  0  0  0
    1.9676    0.1611   -0.2915 P   0  0  0  0  0  0  0  0  0  0  0  0
    1.9357    0.5888   -2.2085 S   0  0  0  0  0  0  0  0  0  0  0  0
    1.3113    1.1840    0.7186 O   0  0  0  0  0  0  0  0  0  0  0  0
    1.3514    2.6097    0.5121 C   0  0  0  0  0  0  0  0  0  0  0  0
    2.7611    3.1534    0.5908 C   0  0  0  0  0  0  0  0  0  0  0  0
    1.1013   -1.6694    0.2769 S   0  0  0  0  0  0  0  0  0  0  0  0
   -0.1358   -1.8966   -1.0479 C   0  0  0  0  0  0  0  0  0  0  0  0
   -1.8257   -1.9994   -0.4223 S   0  0  0  0  0  0  0  0  0  0  0  0
   -2.0453    0.0337    0.1597 P   0  0  0  0  0  0  0  0  0  0  0  0
   -1.4556    1.3735   -1.1382 S   0  0  0  0  0  0  0  0  0  0  0  0
   -1.2825    0.1731    1.5317 O   0  0  0  0  0  0  0  0  0  0  0  0
   -1.4536   -0.7069    2.6710 C   0  0  0  0  0  0  0  0  0  0  0  0
   -2.5266   -0.1896    3.6059 C   0  0  0  0  0  0  0  0  0  0  0  0
   -3.5720    0.1342    0.5882 O   0  0  0  0  0  0  0  0  0  0  0  0
   -4.6255    0.4289   -0.3471 C   0  0  0  0  0  0  0  0  0  0  0  0
   -4.8398   -0.6892   -1.3463 C   0  0  0  0  0  0  0  0  0  0  0  0
    5.9786    0.7042    0.0222 H   0  0  0  0  0  0  0  0  0  0  0  0
    5.7982   -0.4833    1.3192 H   0  0  0  0  0  0  0  0  0  0  0  0
    6.5687   -0.9492   -0.2071 H   0  0  0  0  0  0  0  0  0  0  0  0
    4.2409   -1.8169   -0.1175 H   0  0  0  0  0  0  0  0  0  0  0  0
    4.3902   -0.5890   -1.4012 H   0  0  0  0  0  0  0  0  0  0  0  0
    0.8976    2.8316   -0.4599 H   0  0  0  0  0  0  0  0  0  0  0  0
    0.7128    3.0014    1.3055 H   0  0  0  0  0  0  0  0  0  0  0  0
    3.3505    2.7681   -0.2405 H   0  0  0  0  0  0  0  0  0  0  0  0
    2.7307    4.2368    0.5298 H   0  0  0  0  0  0  0  0  0  0  0  0
    3.2275    2.8519    1.5251 H   0  0  0  0  0  0  0  0  0  0  0  0
    0.0653   -2.8481   -1.5330 H   0  0  0  0  0  0  0  0  0  0  0  0
   -0.0455   -1.0670   -1.7550 H   0  0  0  0  0  0  0  0  0  0  0  0
   -1.6926   -1.7115    2.3104 H   0  0  0  0  0  0  0  0  0  0  0  0
   -0.4715   -0.7135    3.1484 H   0  0  0  0  0  0  0  0  0  0  0  0
   -2.2981    0.8280    3.9108 H   0  0  0  0  0  0  0  0  0  0  0  0
   -3.4946   -0.1998    3.1125 H   0  0  0  0  0  0  0  0  0  0  0  0
   -2.5645   -0.8270    4.4839 H   0  0  0  0  0  0  0  0  0  0  0  0
   -5.5009    0.5752    0.2872 H   0  0  0  0  0  0  0  0  0  0  0  0
   -4.3782    1.3631   -0.8606 H   0  0  0  0  0  0  0  0  0  0  0  0
   -3.9895   -0.7546   -2.0231 H   0  0  0  0  0  0  0  0  0  0  0  0
   -4.9533   -1.6404   -0.8323 H   0  0  0  0  0  0  0  0  0  0  0  0
   -5.7334   -0.4827   -1.9264 H   0  0  0  0  0  0  0  0  0  0  0  0
  1  2  1  0  0  0  0
  2  3  1  0  0  0  0
  3  4  2  0  0  0  0
  4  5  2  0  0  0  0
  4  6  2  0  0  0  0
  6  7  1  0  0  0  0
  7  8  1  0  0  0  0
  4  9  1  0  0  0  0
  9 10  1  0  0  0  0
 10 11  1  0  0  0  0
 11 12  1  0  0  0  0
 12 13  2  0  0  0  0
 12 14  2  0  0  0  0
 14 15  1  0  0  0  0
 15 16  1  0  0  0  0
 12 17  2  0  0  0  0
 17 18  1  0  0  0  0
 18 19  1  0  0  0  0
  1 20  1  0  0  0  0
  1 21  1  0  0  0  0
  1 22  1  0  0  0  0
  2 23  1  0  0  0  0
  2 24  1  0  0  0  0
  7 25  1  0  0  0  0
  7 26  1  0  0  0  0
  8 27  1  0  0  0  0
  8 28  1  0  0  0  0
  8 29  1  0  0  0  0
 10 30  1  0  0  0  0
 10 31  1  0  0  0  0
 15 32  1  0  0  0  0
 15 33  1  0  0  0  0
 16 34  1  0  0  0  0
 16 35  1  0  0  0  0
 16 36  1  0  0  0  0
 18 37  1  0  0  0  0
 18 38  1  0  0  0  0
 19 39  1  0  0  0  0
 19 40  1  0  0  0  0
 19 41  1  0  0  0  0
M  END
