 xtb: 6.7.1 (edcfbbe)
          04092507313D

 38 37  0     0  0            999 V2000
    4.5706   -3.3722   -2.0518 C   0  0  0  0  0  0  0  0  0  0  0  0
    3.6602   -3.6191   -0.8593 C   0  0  0  0  0  0  0  0  0  0  0  0
    3.3313   -2.3830   -0.1960 O   0  0  0  0  0  0  0  0  0  0  0  0
    2.3046   -1.6851   -0.6405 C   0  0  0  0  0  0  0  0  0  0  0  0
    1.5865   -2.0186   -1.5560 O   0  0  0  0  0  0  0  0  0  0  0  0
    2.1419   -0.3994    0.1496 C   0  0  0  0  0  0  0  0  0  0  0  0
    0.7539    0.1821   -0.0614 C   0  0  0  0  0  0  0  0  0  0  0  0
    0.5094    0.1656   -1.1323 H   0  0  0  0  0  0  0  0  0  0  0  0
    0.5872    1.6103    0.4194 C   0  0  0  0  0  0  0  0  0  0  0  0
   -0.4238    1.9875    0.9760 O   0  0  0  0  0  0  0  0  0  0  0  0
    1.6148    2.3607    0.1274 O   0  0  0  0  0  0  0  0  0  0  0  0
    1.5611    3.7610    0.4820 C   0  0  0  0  0  0  0  0  0  0  0  0
    1.9714    3.9717    1.9298 C   0  0  0  0  0  0  0  0  0  0  0  0
   -0.5085   -0.8302    0.7851 S   0  0  0  0  0  0  0  0  0  0  0  0
   -2.2259    0.2086    0.0912 P   0  0  0  0  0  0  0  0  0  0  0  0
   -2.0617    1.2479   -1.5595 S   0  0  0  0  0  0  0  0  0  0  0  0
   -3.2567   -1.0199   -0.0642 O   0  0  0  0  0  0  0  0  0  0  0  0
   -3.0976   -1.9899   -1.1009 C   0  0  0  0  0  0  0  0  0  0  0  0
   -2.9334    0.9712    1.2771 O   0  0  0  0  0  0  0  0  0  0  0  0
   -3.1772    0.3561    2.5572 C   0  0  0  0  0  0  0  0  0  0  0  0
    4.0507   -2.7828   -2.8037 H   0  0  0  0  0  0  0  0  0  0  0  0
    5.4634   -2.8388   -1.7375 H   0  0  0  0  0  0  0  0  0  0  0  0
    4.8569   -4.3236   -2.4878 H   0  0  0  0  0  0  0  0  0  0  0  0
    4.1593   -4.2134   -0.0941 H   0  0  0  0  0  0  0  0  0  0  0  0
    2.7317   -4.1033   -1.1744 H   0  0  0  0  0  0  0  0  0  0  0  0
    2.8865    0.3153   -0.2082 H   0  0  0  0  0  0  0  0  0  0  0  0
    2.3331   -0.6061    1.2024 H   0  0  0  0  0  0  0  0  0  0  0  0
    2.2596    4.2352   -0.2071 H   0  0  0  0  0  0  0  0  0  0  0  0
    0.5448    4.1239    0.3055 H   0  0  0  0  0  0  0  0  0  0  0  0
    2.9624    3.5621    2.1036 H   0  0  0  0  0  0  0  0  0  0  0  0
    1.9811    5.0352    2.1445 H   0  0  0  0  0  0  0  0  0  0  0  0
    1.2615    3.4856    2.5951 H   0  0  0  0  0  0  0  0  0  0  0  0
   -2.2035   -2.5884   -0.9217 H   0  0  0  0  0  0  0  0  0  0  0  0
   -3.0180   -1.4930   -2.0694 H   0  0  0  0  0  0  0  0  0  0  0  0
   -3.9892   -2.6101   -1.0623 H   0  0  0  0  0  0  0  0  0  0  0  0
   -3.8851   -0.4633    2.4453 H   0  0  0  0  0  0  0  0  0  0  0  0
   -3.5911    1.1489    3.1746 H   0  0  0  0  0  0  0  0  0  0  0  0
   -2.2402   -0.0100    2.9771 H   0  0  0  0  0  0  0  0  0  0  0  0
  1  2  1  0  0  0  0
  2  3  1  0  0  0  0
  3  4  1  0  0  0  0
  4  5  2  0  0  0  0
  4  6  1  0  0  0  0
  6  7  1  0  0  0  0
  7  8  1  0  0  0  0
  7  9  1  0  0  0  0
  9 10  2  0  0  0  0
  9 11  4  0  0  0  0
 11 12  1  0  0  0  0
 12 13  1  0  0  0  0
  7 14  1  0  0  0  0
 14 15  1  0  0  0  0
 15 16  2  0  0  0  0
 15 17  1  0  0  0  0
 17 18  1  0  0  0  0
 15 19  2  0  0  0  0
 19 20  1  0  0  0  0
  1 21  1  0  0  0  0
  1 22  1  0  0  0  0
  1 23  1  0  0  0  0
  2 24  1  0  0  0  0
  2 25  1  0  0  0  0
  6 26  1  0  0  0  0
  6 27  1  0  0  0  0
 12 28  1  0  0  0  0
 12 29  1  0  0  0  0
 13 30  1  0  0  0  0
 13 31  1  0  0  0  0
 13 32  1  0  0  0  0
 18 33  1  0  0  0  0
 18 34  1  0  0  0  0
 18 35  1  0  0  0  0
 20 36  1  0  0  0  0
 20 37  1  0  0  0  0
 20 38  1  0  0  0  0
M  END
