 xtb: 6.7.1 (edcfbbe)
          04032519443D

 15 15  0     0  0            999 V2000
   -0.6652   -2.1762    0.0000 C   0  0  0  0  0  0  0  0  0  0  0  0
    0.2172   -0.9694   -0.0000 C   0  0  0  0  0  0  0  0  0  0  0  0
    1.6025   -1.0831   -0.0000 C   0  0  0  0  0  0  0  0  0  0  0  0
    2.4186    0.0343   -0.0000 C   0  0  0  0  0  0  0  0  0  0  0  0
    1.8602    1.3006   -0.0000 C   0  0  0  0  0  0  0  0  0  0  0  0
    0.4833    1.4448   -0.0000 C   0  0  0  0  0  0  0  0  0  0  0  0
   -0.3160    0.3160    0.0000 C   0  0  0  0  0  0  0  0  0  0  0  0
   -2.0498    0.5254    0.0000 Cl  0  0  0  0  0  0  0  0  0  0  0  0
   -1.3090   -2.1712    0.8783 H   0  0  0  0  0  0  0  0  0  0  0  0
   -1.3091   -2.1711   -0.8782 H   0  0  0  0  0  0  0  0  0  0  0  0
   -0.0724   -3.0856   -0.0001 H   0  0  0  0  0  0  0  0  0  0  0  0
    2.0427   -2.0686   -0.0000 H   0  0  0  0  0  0  0  0  0  0  0  0
    3.4908   -0.0839   -0.0000 H   0  0  0  0  0  0  0  0  0  0  0  0
    2.4884    2.1770   -0.0000 H   0  0  0  0  0  0  0  0  0  0  0  0
    0.0300    2.4234    0.0000 H   0  0  0  0  0  0  0  0  0  0  0  0
  1  2  1  0  0  0  0
  2  3  4  0  0  0  0
  3  4  4  0  0  0  0
  4  5  4  0  0  0  0
  5  6  4  0  0  0  0
  2  7  4  0  0  0  0
  6  7  4  0  0  0  0
  7  8  1  0  0  0  0
  1  9  1  0  0  0  0
  1 10  1  0  0  0  0
  1 11  1  0  0  0  0
  3 12  1  0  0  0  0
  4 13  1  0  0  0  0
  5 14  1  0  0  0  0
  6 15  1  0  0  0  0
M  END
