 xtb: 6.7.1 (edcfbbe)
          04092505203D

 41 40  0     0  0            999 V2000
    4.1155   -1.5275   -2.3448 C   0  0  0  0  0  0  0  0  0  0  0  0
    4.3570   -1.6282   -0.8530 C   0  0  0  0  0  0  0  0  0  0  0  0
    3.1252   -1.6299   -0.1097 O   0  0  0  0  0  0  0  0  0  0  0  0
    2.2305   -0.3257    0.0466 P   0  0  0  0  0  0  0  0  0  0  0  0
    3.2491    1.3463    0.2163 S   0  0  0  0  0  0  0  0  0  0  0  0
    1.2536   -0.7517    1.2171 O   0  0  0  0  0  0  0  0  0  0  0  0
    1.6600   -1.2921    2.4924 C   0  0  0  0  0  0  0  0  0  0  0  0
    2.5180   -0.3276    3.2844 C   0  0  0  0  0  0  0  0  0  0  0  0
    0.8551   -0.3760   -1.5624 S   0  0  0  0  0  0  0  0  0  0  0  0
    0.3331    1.3538   -1.4437 C   0  0  0  0  0  0  0  0  0  0  0  0
   -0.4989    1.7347    0.1231 S   0  0  0  0  0  0  0  0  0  0  0  0
   -2.1165    0.3985   -0.1344 P   0  0  0  0  0  0  0  0  0  0  0  0
   -2.8134    0.2312   -1.9622 S   0  0  0  0  0  0  0  0  0  0  0  0
   -3.1672    0.9016    0.9441 O   0  0  0  0  0  0  0  0  0  0  0  0
   -3.9685    2.0795    0.7164 C   0  0  0  0  0  0  0  0  0  0  0  0
   -5.0921    2.0814    1.7330 C   0  0  0  0  0  0  0  0  0  0  0  0
   -1.5820   -0.9201    0.5520 O   0  0  0  0  0  0  0  0  0  0  0  0
   -2.0243   -2.2302    0.1421 C   0  0  0  0  0  0  0  0  0  0  0  0
   -3.4385   -2.5014    0.6094 C   0  0  0  0  0  0  0  0  0  0  0  0
    3.4198   -2.2975   -2.6686 H   0  0  0  0  0  0  0  0  0  0  0  0
    3.6952   -0.5528   -2.5887 H   0  0  0  0  0  0  0  0  0  0  0  0
    5.0574   -1.6465   -2.8705 H   0  0  0  0  0  0  0  0  0  0  0  0
    4.9696   -0.7902   -0.5050 H   0  0  0  0  0  0  0  0  0  0  0  0
    4.8289   -2.5738   -0.5826 H   0  0  0  0  0  0  0  0  0  0  0  0
    0.7103   -1.4853    2.9951 H   0  0  0  0  0  0  0  0  0  0  0  0
    2.1873   -2.2322    2.3138 H   0  0  0  0  0  0  0  0  0  0  0  0
    2.7107   -0.7420    4.2691 H   0  0  0  0  0  0  0  0  0  0  0  0
    3.4669   -0.1604    2.7767 H   0  0  0  0  0  0  0  0  0  0  0  0
    2.0110    0.6292    3.3889 H   0  0  0  0  0  0  0  0  0  0  0  0
   -0.3499    1.5288   -2.2743 H   0  0  0  0  0  0  0  0  0  0  0  0
    1.2043    2.0064   -1.4957 H   0  0  0  0  0  0  0  0  0  0  0  0
   -3.3264    2.9578    0.8276 H   0  0  0  0  0  0  0  0  0  0  0  0
   -4.3520    2.0453   -0.3089 H   0  0  0  0  0  0  0  0  0  0  0  0
   -5.7191    1.2044    1.6006 H   0  0  0  0  0  0  0  0  0  0  0  0
   -4.6809    2.0723    2.7381 H   0  0  0  0  0  0  0  0  0  0  0  0
   -5.6923    2.9750    1.5972 H   0  0  0  0  0  0  0  0  0  0  0  0
   -1.9536   -2.2977   -0.9487 H   0  0  0  0  0  0  0  0  0  0  0  0
   -1.3025   -2.9080    0.5999 H   0  0  0  0  0  0  0  0  0  0  0  0
   -4.1231   -1.8098    0.1196 H   0  0  0  0  0  0  0  0  0  0  0  0
   -3.7166   -3.5181    0.3502 H   0  0  0  0  0  0  0  0  0  0  0  0
   -3.5119   -2.3654    1.6850 H   0  0  0  0  0  0  0  0  0  0  0  0
  1  2  1  0  0  0  0
  2  3  1  0  0  0  0
  3  4  2  0  0  0  0
  4  5  2  0  0  0  0
  4  6  2  0  0  0  0
  6  7  1  0  0  0  0
  7  8  1  0  0  0  0
  4  9  1  0  0  0  0
  9 10  1  0  0  0  0
 10 11  1  0  0  0  0
 11 12  1  0  0  0  0
 12 13  2  0  0  0  0
 12 14  2  0  0  0  0
 14 15  1  0  0  0  0
 15 16  1  0  0  0  0
 12 17  2  0  0  0  0
 17 18  1  0  0  0  0
 18 19  1  0  0  0  0
  1 20  1  0  0  0  0
  1 21  1  0  0  0  0
  1 22  1  0  0  0  0
  2 23  1  0  0  0  0
  2 24  1  0  0  0  0
  7 25  1  0  0  0  0
  7 26  1  0  0  0  0
  8 27  1  0  0  0  0
  8 28  1  0  0  0  0
  8 29  1  0  0  0  0
 10 30  1  0  0  0  0
 10 31  1  0  0  0  0
 15 32  1  0  0  0  0
 15 33  1  0  0  0  0
 16 34  1  0  0  0  0
 16 35  1  0  0  0  0
 16 36  1  0  0  0  0
 18 37  1  0  0  0  0
 18 38  1  0  0  0  0
 19 39  1  0  0  0  0
 19 40  1  0  0  0  0
 19 41  1  0  0  0  0
M  END
