 xtb: 6.7.1 (edcfbbe)
          04092505213D

 41 40  0     0  0            999 V2000
    5.8921   -1.4726   -0.9821 C   0  0  0  0  0  0  0  0  0  0  0  0
    4.5463   -0.8521   -1.2974 C   0  0  0  0  0  0  0  0  0  0  0  0
    3.7733   -0.8254   -0.0795 O   0  0  0  0  0  0  0  0  0  0  0  0
    2.5200    0.1380    0.0719 P   0  0  0  0  0  0  0  0  0  0  0  0
    2.8420    2.0247   -0.3277 S   0  0  0  0  0  0  0  0  0  0  0  0
    2.0693   -0.0798    1.5613 O   0  0  0  0  0  0  0  0  0  0  0  0
    1.7600   -1.3740    2.1386 C   0  0  0  0  0  0  0  0  0  0  0  0
    2.9777   -1.9757    2.8086 C   0  0  0  0  0  0  0  0  0  0  0  0
    1.0552   -0.8126   -1.1602 S   0  0  0  0  0  0  0  0  0  0  0  0
   -0.0425    0.6163   -1.2898 C   0  0  0  0  0  0  0  0  0  0  0  0
   -0.9594    0.9390    0.2366 S   0  0  0  0  0  0  0  0  0  0  0  0
   -2.9266    0.3505   -0.3911 P   0  0  0  0  0  0  0  0  0  0  0  0
   -3.0935   -0.2945   -2.2310 S   0  0  0  0  0  0  0  0  0  0  0  0
   -3.8189    1.6270   -0.1521 O   0  0  0  0  0  0  0  0  0  0  0  0
   -3.6923    2.5903    0.9203 C   0  0  0  0  0  0  0  0  0  0  0  0
   -3.6922    1.9461    2.2891 C   0  0  0  0  0  0  0  0  0  0  0  0
   -3.4691   -0.6572    0.7134 O   0  0  0  0  0  0  0  0  0  0  0  0
   -3.2779   -2.0788    0.6239 C   0  0  0  0  0  0  0  0  0  0  0  0
   -1.8291   -2.4735    0.8267 C   0  0  0  0  0  0  0  0  0  0  0  0
    5.7587   -2.4827   -0.6061 H   0  0  0  0  0  0  0  0  0  0  0  0
    6.4898   -1.5030   -1.8871 H   0  0  0  0  0  0  0  0  0  0  0  0
    6.4089   -0.8807   -0.2318 H   0  0  0  0  0  0  0  0  0  0  0  0
    3.9958   -1.4407   -2.0361 H   0  0  0  0  0  0  0  0  0  0  0  0
    4.6546    0.1740   -1.6644 H   0  0  0  0  0  0  0  0  0  0  0  0
    0.9726   -1.1583    2.8629 H   0  0  0  0  0  0  0  0  0  0  0  0
    1.3764   -2.0299    1.3520 H   0  0  0  0  0  0  0  0  0  0  0  0
    2.6925   -2.9053    3.2912 H   0  0  0  0  0  0  0  0  0  0  0  0
    3.7527   -2.1754    2.0739 H   0  0  0  0  0  0  0  0  0  0  0  0
    3.3704   -1.2896    3.5540 H   0  0  0  0  0  0  0  0  0  0  0  0
   -0.7509    0.4056   -2.0947 H   0  0  0  0  0  0  0  0  0  0  0  0
    0.5626    1.4976   -1.5054 H   0  0  0  0  0  0  0  0  0  0  0  0
   -2.7739    3.1611    0.7588 H   0  0  0  0  0  0  0  0  0  0  0  0
   -4.5589    3.2373    0.7763 H   0  0  0  0  0  0  0  0  0  0  0  0
   -3.6897    2.7233    3.0472 H   0  0  0  0  0  0  0  0  0  0  0  0
   -4.5736    1.3226    2.4124 H   0  0  0  0  0  0  0  0  0  0  0  0
   -2.8025    1.3306    2.4109 H   0  0  0  0  0  0  0  0  0  0  0  0
   -3.9173   -2.4771    1.4130 H   0  0  0  0  0  0  0  0  0  0  0  0
   -3.6370   -2.4178   -0.3530 H   0  0  0  0  0  0  0  0  0  0  0  0
   -1.2270   -2.1311   -0.0145 H   0  0  0  0  0  0  0  0  0  0  0  0
   -1.4452   -2.0342    1.7440 H   0  0  0  0  0  0  0  0  0  0  0  0
   -1.7566   -3.5545    0.8874 H   0  0  0  0  0  0  0  0  0  0  0  0
  1  2  1  0  0  0  0
  2  3  1  0  0  0  0
  3  4  2  0  0  0  0
  4  5  2  0  0  0  0
  4  6  2  0  0  0  0
  6  7  1  0  0  0  0
  7  8  1  0  0  0  0
  4  9  1  0  0  0  0
  9 10  1  0  0  0  0
 10 11  1  0  0  0  0
 11 12  1  0  0  0  0
 12 13  2  0  0  0  0
 12 14  2  0  0  0  0
 14 15  1  0  0  0  0
 15 16  1  0  0  0  0
 12 17  2  0  0  0  0
 17 18  1  0  0  0  0
 18 19  1  0  0  0  0
  1 20  1  0  0  0  0
  1 21  1  0  0  0  0
  1 22  1  0  0  0  0
  2 23  1  0  0  0  0
  2 24  1  0  0  0  0
  7 25  1  0  0  0  0
  7 26  1  0  0  0  0
  8 27  1  0  0  0  0
  8 28  1  0  0  0  0
  8 29  1  0  0  0  0
 10 30  1  0  0  0  0
 10 31  1  0  0  0  0
 15 32  1  0  0  0  0
 15 33  1  0  0  0  0
 16 34  1  0  0  0  0
 16 35  1  0  0  0  0
 16 36  1  0  0  0  0
 18 37  1  0  0  0  0
 18 38  1  0  0  0  0
 19 39  1  0  0  0  0
 19 40  1  0  0  0  0
 19 41  1  0  0  0  0
M  END
