 xtb: 6.7.1 (edcfbbe)
          04092507313D

 38 37  0     0  0            999 V2000
    2.2176   -2.6709    0.6830 C   0  0  0  0  0  0  0  0  0  0  0  0
    3.2483   -1.8291   -0.0529 C   0  0  0  0  0  0  0  0  0  0  0  0
    2.6117   -0.6880   -0.6591 O   0  0  0  0  0  0  0  0  0  0  0  0
    2.1247   -0.8170   -1.8834 C   0  0  0  0  0  0  0  0  0  0  0  0
    2.2814   -1.7896   -2.5833 O   0  0  0  0  0  0  0  0  0  0  0  0
    1.3415    0.4151   -2.2967 C   0  0  0  0  0  0  0  0  0  0  0  0
    0.2635    0.7228   -1.2607 C   0  0  0  0  0  0  0  0  0  0  0  0
   -0.3466    1.5707   -1.5874 H   0  0  0  0  0  0  0  0  0  0  0  0
    0.8462    1.0656    0.1003 C   0  0  0  0  0  0  0  0  0  0  0  0
    0.4968    0.5090    1.1212 O   0  0  0  0  0  0  0  0  0  0  0  0
    1.6946    2.0539    0.0259 O   0  0  0  0  0  0  0  0  0  0  0  0
    2.2811    2.5441    1.2504 C   0  0  0  0  0  0  0  0  0  0  0  0
    3.4400    1.6705    1.6989 C   0  0  0  0  0  0  0  0  0  0  0  0
   -0.8410   -0.7185   -1.0501 S   0  0  0  0  0  0  0  0  0  0  0  0
   -2.0491    0.0440    0.5271 P   0  0  0  0  0  0  0  0  0  0  0  0
   -2.1754    1.9912    0.6900 S   0  0  0  0  0  0  0  0  0  0  0  0
   -3.4615   -0.6274    0.1499 O   0  0  0  0  0  0  0  0  0  0  0  0
   -4.2073   -0.2005   -0.9926 C   0  0  0  0  0  0  0  0  0  0  0  0
   -1.7719   -0.7248    1.8776 O   0  0  0  0  0  0  0  0  0  0  0  0
   -1.7732   -2.1630    1.9598 C   0  0  0  0  0  0  0  0  0  0  0  0
    2.7168   -3.4637    1.2295 H   0  0  0  0  0  0  0  0  0  0  0  0
    1.6609   -2.0469    1.3798 H   0  0  0  0  0  0  0  0  0  0  0  0
    1.5213   -3.1104   -0.0285 H   0  0  0  0  0  0  0  0  0  0  0  0
    3.7427   -2.4095   -0.8366 H   0  0  0  0  0  0  0  0  0  0  0  0
    3.9847   -1.4088    0.6325 H   0  0  0  0  0  0  0  0  0  0  0  0
    0.8902    0.2231   -3.2693 H   0  0  0  0  0  0  0  0  0  0  0  0
    2.0172    1.2696   -2.3595 H   0  0  0  0  0  0  0  0  0  0  0  0
    2.6109    3.5515    0.9971 H   0  0  0  0  0  0  0  0  0  0  0  0
    1.4998    2.5811    2.0153 H   0  0  0  0  0  0  0  0  0  0  0  0
    3.0780    0.6802    1.9630 H   0  0  0  0  0  0  0  0  0  0  0  0
    4.1715    1.5815    0.9005 H   0  0  0  0  0  0  0  0  0  0  0  0
    3.9082    2.1194    2.5686 H   0  0  0  0  0  0  0  0  0  0  0  0
   -5.1899   -0.6530   -0.8877 H   0  0  0  0  0  0  0  0  0  0  0  0
   -3.7200   -0.5462   -1.9044 H   0  0  0  0  0  0  0  0  0  0  0  0
   -4.2877    0.8879   -1.0014 H   0  0  0  0  0  0  0  0  0  0  0  0
   -2.7863   -2.5386    1.8282 H   0  0  0  0  0  0  0  0  0  0  0  0
   -1.3989   -2.3895    2.9547 H   0  0  0  0  0  0  0  0  0  0  0  0
   -1.1167   -2.5830    1.1973 H   0  0  0  0  0  0  0  0  0  0  0  0
  1  2  1  0  0  0  0
  2  3  1  0  0  0  0
  3  4  1  0  0  0  0
  4  5  2  0  0  0  0
  4  6  1  0  0  0  0
  6  7  1  0  0  0  0
  7  8  1  0  0  0  0
  7  9  1  0  0  0  0
  9 10  2  0  0  0  0
  9 11  4  0  0  0  0
 11 12  1  0  0  0  0
 12 13  1  0  0  0  0
  7 14  1  0  0  0  0
 14 15  1  0  0  0  0
 15 16  2  0  0  0  0
 15 17  1  0  0  0  0
 17 18  1  0  0  0  0
 15 19  2  0  0  0  0
 19 20  1  0  0  0  0
  1 21  1  0  0  0  0
  1 22  1  0  0  0  0
  1 23  1  0  0  0  0
  2 24  1  0  0  0  0
  2 25  1  0  0  0  0
  6 26  1  0  0  0  0
  6 27  1  0  0  0  0
 12 28  1  0  0  0  0
 12 29  1  0  0  0  0
 13 30  1  0  0  0  0
 13 31  1  0  0  0  0
 13 32  1  0  0  0  0
 18 33  1  0  0  0  0
 18 34  1  0  0  0  0
 18 35  1  0  0  0  0
 20 36  1  0  0  0  0
 20 37  1  0  0  0  0
 20 38  1  0  0  0  0
M  END
