 xtb: 6.7.1 (edcfbbe)
          04092505203D

 41 40  0     0  0            999 V2000
    0.7637   -1.0335    3.4180 C   0  0  0  0  0  0  0  0  0  0  0  0
    2.0084   -0.6180    2.6615 C   0  0  0  0  0  0  0  0  0  0  0  0
    1.6163    0.0668    1.4442 O   0  0  0  0  0  0  0  0  0  0  0  0
    2.3554   -0.1921    0.0723 P   0  0  0  0  0  0  0  0  0  0  0  0
    2.9641   -2.0304   -0.2562 S   0  0  0  0  0  0  0  0  0  0  0  0
    3.5194    0.8883    0.1276 O   0  0  0  0  0  0  0  0  0  0  0  0
    4.5930    0.9171   -0.8349 C   0  0  0  0  0  0  0  0  0  0  0  0
    5.8124    1.5150   -0.1622 C   0  0  0  0  0  0  0  0  0  0  0  0
    0.9887    0.6019   -1.3225 S   0  0  0  0  0  0  0  0  0  0  0  0
    0.0159   -0.9181   -1.5257 C   0  0  0  0  0  0  0  0  0  0  0  0
   -1.0656   -1.2500   -0.1208 S   0  0  0  0  0  0  0  0  0  0  0  0
   -2.3958    0.3845   -0.4900 P   0  0  0  0  0  0  0  0  0  0  0  0
   -2.7719    0.7710   -2.3676 S   0  0  0  0  0  0  0  0  0  0  0  0
   -1.7422    1.6165    0.2451 O   0  0  0  0  0  0  0  0  0  0  0  0
   -1.4546    1.6283    1.6647 C   0  0  0  0  0  0  0  0  0  0  0  0
   -2.5102    2.4179    2.4105 C   0  0  0  0  0  0  0  0  0  0  0  0
   -3.6524    0.0605    0.4269 O   0  0  0  0  0  0  0  0  0  0  0  0
   -4.7615   -0.7366   -0.0298 C   0  0  0  0  0  0  0  0  0  0  0  0
   -4.3654   -2.1701   -0.3166 C   0  0  0  0  0  0  0  0  0  0  0  0
    0.1889   -0.1590    3.7082 H   0  0  0  0  0  0  0  0  0  0  0  0
    0.1472   -1.6775    2.7951 H   0  0  0  0  0  0  0  0  0  0  0  0
    1.0603   -1.5784    4.3085 H   0  0  0  0  0  0  0  0  0  0  0  0
    2.6129   -1.4906    2.3922 H   0  0  0  0  0  0  0  0  0  0  0  0
    2.6171    0.0809    3.2381 H   0  0  0  0  0  0  0  0  0  0  0  0
    4.7865   -0.1060   -1.1750 H   0  0  0  0  0  0  0  0  0  0  0  0
    4.2662    1.5225   -1.6839 H   0  0  0  0  0  0  0  0  0  0  0  0
    6.6211    1.5766   -0.8830 H   0  0  0  0  0  0  0  0  0  0  0  0
    5.5815    2.5101    0.2066 H   0  0  0  0  0  0  0  0  0  0  0  0
    6.1227    0.8920    0.6720 H   0  0  0  0  0  0  0  0  0  0  0  0
    0.6911   -1.7689   -1.6218 H   0  0  0  0  0  0  0  0  0  0  0  0
   -0.5885   -0.7820   -2.4229 H   0  0  0  0  0  0  0  0  0  0  0  0
   -1.4044    0.5965    2.0224 H   0  0  0  0  0  0  0  0  0  0  0  0
   -0.4693    2.0931    1.7451 H   0  0  0  0  0  0  0  0  0  0  0  0
   -3.4771    1.9305    2.3185 H   0  0  0  0  0  0  0  0  0  0  0  0
   -2.2363    2.4784    3.4592 H   0  0  0  0  0  0  0  0  0  0  0  0
   -2.5825    3.4212    1.9998 H   0  0  0  0  0  0  0  0  0  0  0  0
   -5.4795   -0.6740    0.7890 H   0  0  0  0  0  0  0  0  0  0  0  0
   -5.1755   -0.2658   -0.9264 H   0  0  0  0  0  0  0  0  0  0  0  0
   -3.8492   -2.6007    0.5377 H   0  0  0  0  0  0  0  0  0  0  0  0
   -5.2569   -2.7510   -0.5301 H   0  0  0  0  0  0  0  0  0  0  0  0
   -3.7058   -2.2088   -1.1821 H   0  0  0  0  0  0  0  0  0  0  0  0
  1  2  1  0  0  0  0
  2  3  1  0  0  0  0
  3  4  2  0  0  0  0
  4  5  2  0  0  0  0
  4  6  2  0  0  0  0
  6  7  1  0  0  0  0
  7  8  1  0  0  0  0
  4  9  1  0  0  0  0
  9 10  1  0  0  0  0
 10 11  1  0  0  0  0
 11 12  1  0  0  0  0
 12 13  2  0  0  0  0
 12 14  2  0  0  0  0
 14 15  1  0  0  0  0
 15 16  1  0  0  0  0
 12 17  2  0  0  0  0
 17 18  1  0  0  0  0
 18 19  1  0  0  0  0
  1 20  1  0  0  0  0
  1 21  1  0  0  0  0
  1 22  1  0  0  0  0
  2 23  1  0  0  0  0
  2 24  1  0  0  0  0
  7 25  1  0  0  0  0
  7 26  1  0  0  0  0
  8 27  1  0  0  0  0
  8 28  1  0  0  0  0
  8 29  1  0  0  0  0
 10 30  1  0  0  0  0
 10 31  1  0  0  0  0
 15 32  1  0  0  0  0
 15 33  1  0  0  0  0
 16 34  1  0  0  0  0
 16 35  1  0  0  0  0
 16 36  1  0  0  0  0
 18 37  1  0  0  0  0
 18 38  1  0  0  0  0
 19 39  1  0  0  0  0
 19 40  1  0  0  0  0
 19 41  1  0  0  0  0
M  END
