 xtb: 6.7.1 (edcfbbe)
          04092505203D

 41 40  0     0  0            999 V2000
    2.0942   -3.7661    0.3765 C   0  0  0  0  0  0  0  0  0  0  0  0
    1.5242   -2.6068    1.1665 C   0  0  0  0  0  0  0  0  0  0  0  0
    1.1159   -1.5175    0.3087 O   0  0  0  0  0  0  0  0  0  0  0  0
    2.1156   -0.5864   -0.4930 P   0  0  0  0  0  0  0  0  0  0  0  0
    2.8932   -1.2564   -2.1627 S   0  0  0  0  0  0  0  0  0  0  0  0
    3.1798   -0.2213    0.6416 O   0  0  0  0  0  0  0  0  0  0  0  0
    4.4706    0.3161    0.3144 C   0  0  0  0  0  0  0  0  0  0  0  0
    4.3799    1.7567   -0.1471 C   0  0  0  0  0  0  0  0  0  0  0  0
    0.8728    1.1075   -0.7409 S   0  0  0  0  0  0  0  0  0  0  0  0
    0.4107    1.3922    0.9962 C   0  0  0  0  0  0  0  0  0  0  0  0
   -0.9044    0.3008    1.5995 S   0  0  0  0  0  0  0  0  0  0  0  0
   -2.3386    0.7804    0.1052 P   0  0  0  0  0  0  0  0  0  0  0  0
   -2.3974    2.6445   -0.4776 S   0  0  0  0  0  0  0  0  0  0  0  0
   -3.6944    0.1907    0.6951 O   0  0  0  0  0  0  0  0  0  0  0  0
   -4.5697    0.9548    1.5465 C   0  0  0  0  0  0  0  0  0  0  0  0
   -3.9350    1.2833    2.8819 C   0  0  0  0  0  0  0  0  0  0  0  0
   -2.0592   -0.2164   -1.0886 O   0  0  0  0  0  0  0  0  0  0  0  0
   -2.0931   -1.6567   -0.9376 C   0  0  0  0  0  0  0  0  0  0  0  0
   -1.3438   -2.2642   -2.1050 C   0  0  0  0  0  0  0  0  0  0  0  0
    3.0047   -3.4606   -0.1365 H   0  0  0  0  0  0  0  0  0  0  0  0
    2.3241   -4.5836    1.0525 H   0  0  0  0  0  0  0  0  0  0  0  0
    1.3793   -4.1053   -0.3688 H   0  0  0  0  0  0  0  0  0  0  0  0
    2.2502   -2.2279    1.8883 H   0  0  0  0  0  0  0  0  0  0  0  0
    0.6030   -2.8832    1.6827 H   0  0  0  0  0  0  0  0  0  0  0  0
    5.0416    0.2224    1.2391 H   0  0  0  0  0  0  0  0  0  0  0  0
    4.9175   -0.3071   -0.4669 H   0  0  0  0  0  0  0  0  0  0  0  0
    3.8884    2.3708    0.6031 H   0  0  0  0  0  0  0  0  0  0  0  0
    5.3792    2.1406   -0.3254 H   0  0  0  0  0  0  0  0  0  0  0  0
    3.8110    1.8128   -1.0750 H   0  0  0  0  0  0  0  0  0  0  0  0
    0.0625    2.4235    1.0343 H   0  0  0  0  0  0  0  0  0  0  0  0
    1.2711    1.2349    1.6417 H   0  0  0  0  0  0  0  0  0  0  0  0
   -4.8487    1.8709    1.0173 H   0  0  0  0  0  0  0  0  0  0  0  0
   -5.4428    0.3108    1.6614 H   0  0  0  0  0  0  0  0  0  0  0  0
   -3.5507    0.3816    3.3518 H   0  0  0  0  0  0  0  0  0  0  0  0
   -3.1148    1.9853    2.7409 H   0  0  0  0  0  0  0  0  0  0  0  0
   -4.6791    1.7386    3.5274 H   0  0  0  0  0  0  0  0  0  0  0  0
   -1.6272   -1.9187    0.0172 H   0  0  0  0  0  0  0  0  0  0  0  0
   -3.1400   -1.9658   -0.9272 H   0  0  0  0  0  0  0  0  0  0  0  0
   -1.7830   -1.9348   -3.0423 H   0  0  0  0  0  0  0  0  0  0  0  0
   -0.2994   -1.9566   -2.0894 H   0  0  0  0  0  0  0  0  0  0  0  0
   -1.3974   -3.3463   -2.0416 H   0  0  0  0  0  0  0  0  0  0  0  0
  1  2  1  0  0  0  0
  2  3  1  0  0  0  0
  3  4  2  0  0  0  0
  4  5  2  0  0  0  0
  4  6  2  0  0  0  0
  6  7  1  0  0  0  0
  7  8  1  0  0  0  0
  4  9  1  0  0  0  0
  9 10  1  0  0  0  0
 10 11  1  0  0  0  0
 11 12  1  0  0  0  0
 12 13  2  0  0  0  0
 12 14  2  0  0  0  0
 14 15  1  0  0  0  0
 15 16  1  0  0  0  0
 12 17  2  0  0  0  0
 17 18  1  0  0  0  0
 18 19  1  0  0  0  0
  1 20  1  0  0  0  0
  1 21  1  0  0  0  0
  1 22  1  0  0  0  0
  2 23  1  0  0  0  0
  2 24  1  0  0  0  0
  7 25  1  0  0  0  0
  7 26  1  0  0  0  0
  8 27  1  0  0  0  0
  8 28  1  0  0  0  0
  8 29  1  0  0  0  0
 10 30  1  0  0  0  0
 10 31  1  0  0  0  0
 15 32  1  0  0  0  0
 15 33  1  0  0  0  0
 16 34  1  0  0  0  0
 16 35  1  0  0  0  0
 16 36  1  0  0  0  0
 18 37  1  0  0  0  0
 18 38  1  0  0  0  0
 19 39  1  0  0  0  0
 19 40  1  0  0  0  0
 19 41  1  0  0  0  0
M  END
