 xtb: 6.7.1 (edcfbbe)
          04092505213D

 41 40  0     0  0            999 V2000
    1.8332   -3.8886   -0.9164 C   0  0  0  0  0  0  0  0  0  0  0  0
    1.3593   -2.5498   -0.3889 C   0  0  0  0  0  0  0  0  0  0  0  0
    2.4756   -1.6421   -0.4198 O   0  0  0  0  0  0  0  0  0  0  0  0
    2.2942   -0.0656   -0.3177 P   0  0  0  0  0  0  0  0  0  0  0  0
    0.9852    0.6760   -1.5776 S   0  0  0  0  0  0  0  0  0  0  0  0
    3.7403    0.4661   -0.6128 O   0  0  0  0  0  0  0  0  0  0  0  0
    4.8708    0.4523    0.2973 C   0  0  0  0  0  0  0  0  0  0  0  0
    5.1503   -0.9194    0.8698 C   0  0  0  0  0  0  0  0  0  0  0  0
    1.9453    0.3273    1.7525 S   0  0  0  0  0  0  0  0  0  0  0  0
    0.2583    0.9501    1.6798 C   0  0  0  0  0  0  0  0  0  0  0  0
   -0.9502   -0.3460    1.2445 S   0  0  0  0  0  0  0  0  0  0  0  0
   -2.2121    0.7488   -0.0849 P   0  0  0  0  0  0  0  0  0  0  0  0
   -1.8863    2.6730   -0.1811 S   0  0  0  0  0  0  0  0  0  0  0  0
   -3.6615    0.3449    0.4420 O   0  0  0  0  0  0  0  0  0  0  0  0
   -4.1703    0.8449    1.6948 C   0  0  0  0  0  0  0  0  0  0  0  0
   -5.6603    0.5722    1.7327 C   0  0  0  0  0  0  0  0  0  0  0  0
   -2.1945    0.0255   -1.4770 O   0  0  0  0  0  0  0  0  0  0  0  0
   -2.4658   -1.3938   -1.6281 C   0  0  0  0  0  0  0  0  0  0  0  0
   -1.8827   -1.8329   -2.9547 C   0  0  0  0  0  0  0  0  0  0  0  0
    2.1880   -3.7823   -1.9376 H   0  0  0  0  0  0  0  0  0  0  0  0
    2.6436   -4.2641   -0.2990 H   0  0  0  0  0  0  0  0  0  0  0  0
    1.0080   -4.5925   -0.8937 H   0  0  0  0  0  0  0  0  0  0  0  0
    1.0049   -2.6269    0.6435 H   0  0  0  0  0  0  0  0  0  0  0  0
    0.5573   -2.1362   -1.0092 H   0  0  0  0  0  0  0  0  0  0  0  0
    5.6919    0.8056   -0.3282 H   0  0  0  0  0  0  0  0  0  0  0  0
    4.6719    1.1742    1.0931 H   0  0  0  0  0  0  0  0  0  0  0  0
    5.2665   -1.6449    0.0692 H   0  0  0  0  0  0  0  0  0  0  0  0
    6.0642   -0.8776    1.4544 H   0  0  0  0  0  0  0  0  0  0  0  0
    4.3318   -1.2300    1.5163 H   0  0  0  0  0  0  0  0  0  0  0  0
    0.1773    1.7513    0.9409 H   0  0  0  0  0  0  0  0  0  0  0  0
    0.0334    1.3138    2.6795 H   0  0  0  0  0  0  0  0  0  0  0  0
   -3.6487    0.3272    2.5048 H   0  0  0  0  0  0  0  0  0  0  0  0
   -3.9549    1.9170    1.7538 H   0  0  0  0  0  0  0  0  0  0  0  0
   -5.8448   -0.4949    1.6522 H   0  0  0  0  0  0  0  0  0  0  0  0
   -6.0650    0.9385    2.6703 H   0  0  0  0  0  0  0  0  0  0  0  0
   -6.1523    1.0788    0.9073 H   0  0  0  0  0  0  0  0  0  0  0  0
   -2.0082   -1.9260   -0.7879 H   0  0  0  0  0  0  0  0  0  0  0  0
   -3.5482   -1.5296   -1.5952 H   0  0  0  0  0  0  0  0  0  0  0  0
   -2.3786   -1.3140   -3.7697 H   0  0  0  0  0  0  0  0  0  0  0  0
   -0.8232   -1.5902   -2.9939 H   0  0  0  0  0  0  0  0  0  0  0  0
   -2.0161   -2.9035   -3.0699 H   0  0  0  0  0  0  0  0  0  0  0  0
  1  2  1  0  0  0  0
  2  3  1  0  0  0  0
  3  4  2  0  0  0  0
  4  5  2  0  0  0  0
  4  6  2  0  0  0  0
  6  7  1  0  0  0  0
  7  8  1  0  0  0  0
  4  9  1  0  0  0  0
  9 10  1  0  0  0  0
 10 11  1  0  0  0  0
 11 12  1  0  0  0  0
 12 13  2  0  0  0  0
 12 14  2  0  0  0  0
 14 15  1  0  0  0  0
 15 16  1  0  0  0  0
 12 17  2  0  0  0  0
 17 18  1  0  0  0  0
 18 19  1  0  0  0  0
  1 20  1  0  0  0  0
  1 21  1  0  0  0  0
  1 22  1  0  0  0  0
  2 23  1  0  0  0  0
  2 24  1  0  0  0  0
  7 25  1  0  0  0  0
  7 26  1  0  0  0  0
  8 27  1  0  0  0  0
  8 28  1  0  0  0  0
  8 29  1  0  0  0  0
 10 30  1  0  0  0  0
 10 31  1  0  0  0  0
 15 32  1  0  0  0  0
 15 33  1  0  0  0  0
 16 34  1  0  0  0  0
 16 35  1  0  0  0  0
 16 36  1  0  0  0  0
 18 37  1  0  0  0  0
 18 38  1  0  0  0  0
 19 39  1  0  0  0  0
 19 40  1  0  0  0  0
 19 41  1  0  0  0  0
M  END
