 xtb: 6.7.1 (edcfbbe)
          04032519423D

 20 20  0     0  0            999 V2000
    0.5977    1.7038   -0.0572 C   0  0  0  0  0  0  0  0  0  0  0  0
    1.3983    0.4083   -0.2736 C   0  0  0  0  0  0  0  0  0  0  0  0
    1.5963    0.2805   -1.3511 H   0  0  0  0  0  0  0  0  0  0  0  0
    0.5488   -0.7772    0.2041 C   0  0  0  0  0  0  0  0  0  0  0  0
    0.3750   -0.6868    1.2815 H   0  0  0  0  0  0  0  0  0  0  0  0
   -0.8022   -0.7351   -0.5271 C   0  0  0  0  0  0  0  0  0  0  0  0
   -0.6217   -0.7836   -1.6158 H   0  0  0  0  0  0  0  0  0  0  0  0
   -1.4886    0.6112   -0.2423 C   0  0  0  0  0  0  0  0  0  0  0  0
   -2.4027    0.6828   -0.8462 H   0  0  0  0  0  0  0  0  0  0  0  0
   -0.6693    1.6655   -0.6979 O   0  0  0  0  0  0  0  0  0  0  0  0
   -1.7558    0.7061    1.1153 O   0  0  0  0  0  0  0  0  0  0  0  0
   -1.6443   -1.7861   -0.1423 O   0  0  0  0  0  0  0  0  0  0  0  0
    1.1664   -2.0263    0.0264 O   0  0  0  0  0  0  0  0  0  0  0  0
    2.6001    0.4158    0.4546 O   0  0  0  0  0  0  0  0  0  0  0  0
    1.1074    2.5618   -0.4963 H   0  0  0  0  0  0  0  0  0  0  0  0
    0.4726    1.8562    1.0216 H   0  0  0  0  0  0  0  0  0  0  0  0
   -2.3896    1.4187    1.2873 H   0  0  0  0  0  0  0  0  0  0  0  0
   -1.0855   -2.5397    0.1115 H   0  0  0  0  0  0  0  0  0  0  0  0
    1.5584   -2.0802   -0.8576 H   0  0  0  0  0  0  0  0  0  0  0  0
    3.1719    1.1313    0.1416 H   0  0  0  0  0  0  0  0  0  0  0  0
  1  2  1  0  0  0  0
  2  3  1  0  0  0  0
  2  4  1  0  0  0  0
  4  5  1  0  0  0  0
  4  6  1  0  0  0  0
  6  7  1  0  0  0  0
  6  8  1  0  0  0  0
  8  9  1  0  0  0  0
  1 10  1  0  0  0  0
  8 10  1  0  0  0  0
  8 11  1  0  0  0  0
  6 12  1  0  0  0  0
  4 13  1  0  0  0  0
  2 14  1  0  0  0  0
  1 15  1  0  0  0  0
  1 16  1  0  0  0  0
 11 17  1  0  0  0  0
 12 18  1  0  0  0  0
 13 19  1  0  0  0  0
 14 20  1  0  0  0  0
M  END
