 xtb: 6.7.1 (edcfbbe)
          04092514003D

 41 40  0     0  0            999 V2000
    0.5896   -1.6271    2.8754 C   0  0  0  0  0  0  0  0  0  0  0  0
    1.7113   -0.6233    2.6984 C   0  0  0  0  0  0  0  0  0  0  0  0
    1.4791    0.1779    1.5159 O   0  0  0  0  0  0  0  0  0  0  0  0
    2.2983    0.0033    0.1759 P   0  0  0  0  0  0  0  0  0  0  0  0
    2.9803   -1.7906   -0.2334 S   0  0  0  0  0  0  0  0  0  0  0  0
    3.4112    1.1252    0.3703 O   0  0  0  0  0  0  0  0  0  0  0  0
    4.4781    1.3305   -0.5812 C   0  0  0  0  0  0  0  0  0  0  0  0
    5.7820    0.7677   -0.0487 C   0  0  0  0  0  0  0  0  0  0  0  0
    0.9876    0.8785   -1.2296 S   0  0  0  0  0  0  0  0  0  0  0  0
    0.2155   -0.6449   -1.8485 C   0  0  0  0  0  0  0  0  0  0  0  0
   -0.7731   -1.5132   -0.6038 S   0  0  0  0  0  0  0  0  0  0  0  0
   -2.2117    0.0117   -0.2793 P   0  0  0  0  0  0  0  0  0  0  0  0
   -2.7314    1.0463   -1.8644 S   0  0  0  0  0  0  0  0  0  0  0  0
   -1.5871    0.8288    0.9211 O   0  0  0  0  0  0  0  0  0  0  0  0
   -1.6086    2.2656    1.0032 C   0  0  0  0  0  0  0  0  0  0  0  0
   -2.8983    2.7506    1.6319 C   0  0  0  0  0  0  0  0  0  0  0  0
   -3.3593   -0.7638    0.4955 O   0  0  0  0  0  0  0  0  0  0  0  0
   -4.1975   -1.7593   -0.1298 C   0  0  0  0  0  0  0  0  0  0  0  0
   -5.5115   -1.1563   -0.5893 C   0  0  0  0  0  0  0  0  0  0  0  0
   -0.3712   -1.1179    2.8652 H   0  0  0  0  0  0  0  0  0  0  0  0
    0.6054   -2.3551    2.0666 H   0  0  0  0  0  0  0  0  0  0  0  0
    0.7165   -2.1430    3.8218 H   0  0  0  0  0  0  0  0  0  0  0  0
    2.6777   -1.1279    2.6098 H   0  0  0  0  0  0  0  0  0  0  0  0
    1.7444    0.0917    3.5222 H   0  0  0  0  0  0  0  0  0  0  0  0
    4.2118    0.8614   -1.5324 H   0  0  0  0  0  0  0  0  0  0  0  0
    4.5361    2.4124   -0.7131 H   0  0  0  0  0  0  0  0  0  0  0  0
    6.5807    1.0027   -0.7452 H   0  0  0  0  0  0  0  0  0  0  0  0
    6.0102    1.2039    0.9196 H   0  0  0  0  0  0  0  0  0  0  0  0
    5.7107   -0.3125    0.0578 H   0  0  0  0  0  0  0  0  0  0  0  0
    0.9869   -1.3449   -2.1677 H   0  0  0  0  0  0  0  0  0  0  0  0
   -0.4201   -0.3418   -2.6801 H   0  0  0  0  0  0  0  0  0  0  0  0
   -0.7372    2.5152    1.6110 H   0  0  0  0  0  0  0  0  0  0  0  0
   -1.4845    2.6820   -0.0025 H   0  0  0  0  0  0  0  0  0  0  0  0
   -2.8563    3.8289    1.7503 H   0  0  0  0  0  0  0  0  0  0  0  0
   -3.7397    2.4951    0.9897 H   0  0  0  0  0  0  0  0  0  0  0  0
   -3.0423    2.2846    2.6028 H   0  0  0  0  0  0  0  0  0  0  0  0
   -3.6599   -2.2138   -0.9671 H   0  0  0  0  0  0  0  0  0  0  0  0
   -4.3577   -2.5097    0.6468 H   0  0  0  0  0  0  0  0  0  0  0  0
   -6.1496   -1.9460   -0.9734 H   0  0  0  0  0  0  0  0  0  0  0  0
   -6.0097   -0.6677    0.2434 H   0  0  0  0  0  0  0  0  0  0  0  0
   -5.3405   -0.4242   -1.3754 H   0  0  0  0  0  0  0  0  0  0  0  0
  1  2  1  0  0  0  0
  2  3  1  0  0  0  0
  3  4  2  0  0  0  0
  4  5  2  0  0  0  0
  4  6  2  0  0  0  0
  6  7  1  0  0  0  0
  7  8  1  0  0  0  0
  4  9  1  0  0  0  0
  9 10  1  0  0  0  0
 10 11  1  0  0  0  0
 11 12  1  0  0  0  0
 12 13  2  0  0  0  0
 12 14  2  0  0  0  0
 14 15  1  0  0  0  0
 15 16  1  0  0  0  0
 12 17  2  0  0  0  0
 17 18  1  0  0  0  0
 18 19  1  0  0  0  0
  1 20  1  0  0  0  0
  1 21  1  0  0  0  0
  1 22  1  0  0  0  0
  2 23  1  0  0  0  0
  2 24  1  0  0  0  0
  7 25  1  0  0  0  0
  7 26  1  0  0  0  0
  8 27  1  0  0  0  0
  8 28  1  0  0  0  0
  8 29  1  0  0  0  0
 10 30  1  0  0  0  0
 10 31  1  0  0  0  0
 15 32  1  0  0  0  0
 15 33  1  0  0  0  0
 16 34  1  0  0  0  0
 16 35  1  0  0  0  0
 16 36  1  0  0  0  0
 18 37  1  0  0  0  0
 18 38  1  0  0  0  0
 19 39  1  0  0  0  0
 19 40  1  0  0  0  0
 19 41  1  0  0  0  0
M  END
