41
 xtb: 6.7.1 (edcfbbe)
C            4.23918771115629        0.11971462972670       -2.77123903833117
C            4.38975949407813       -0.67876877478222       -1.50305779813143
O            3.98919537072024        0.16399780520008       -0.35942201813770
P            2.74934153664621       -0.21679266633550        0.58507416511329
S            2.46972585149973        1.14684075112661        1.93832429461720
O            3.12403503336157       -1.70625542445475        1.06871772549644
C            2.61179768296025       -2.28072280231683        2.32444928656191
C            1.14656042333521       -2.63369915368352        2.24758618952952
S            1.11610351397200       -0.66294800362789       -0.69564033697865
C            0.53313509337461        1.02767837432373       -1.11789058274909
S           -0.75636373444667        1.74512183951074       -0.01883711323219
P           -2.32467671673022        0.36005679508699       -0.33252759008098
S           -2.52447312860140       -0.32516658102583       -2.14588238319686
O           -3.57995412027814        1.14420924117953        0.30467861527697
C           -4.53634606120453        1.91585545246963       -0.50221487875126
C           -3.99654468566952        3.27116555793758       -0.88593220778016
O           -2.02803628936883       -0.72007938804272        0.82204749580737
C           -2.54341328615787       -2.09471234278754        0.74763406487738
C           -4.02765350490021       -2.15480806444221        1.01348001363282
H            4.59001222722978       -0.48210689456147       -3.61592772178787
H            3.19120762325158        0.38354122338171       -2.94523708876629
H            4.83517843828477        1.03580476093753       -2.72907751150541
H            5.42944962724048       -0.95233329466753       -1.30744494149748
H            3.78576802368694       -1.59035763796462       -1.52194104513312
H            3.23166032553835       -3.16821349967022        2.46432161215450
H            2.81890852116098       -1.56890592256113        3.12906002075238
H            0.94457220708553       -3.29821329669322        1.40241745064600
H            0.87103718474411       -3.15543217161507        3.17009359006175
H            0.51887634975964       -1.74238767417755        2.16038722482392
H            0.13644624815312        0.96811890493790       -2.13442785158398
H            1.36566900508126        1.73655985004565       -1.10194356217787
H           -4.80642394437667        1.31863211371035       -1.37836424836886
H           -5.40656087043753        2.00162342133808        0.15165035275704
H           -4.79765641475735        3.83675240487582       -1.37313749128699
H           -3.67020912870884        3.82850061756319       -0.00297159651328
H           -3.16150609146403        3.19139279623849       -1.58748715657226
H           -2.28307718139154       -2.50569778539849       -0.23269726762128
H           -1.97375667162380       -2.62153350925578        1.51637730734896
H           -4.33564385559760       -3.20519581201125        1.04369077052121
H           -4.27175690011604       -1.69556340477224        1.97569546262599
H           -4.59939506607035       -1.65643427342129        0.22467892754913
