 xtb: 6.7.1 (edcfbbe)
          04092505213D

 41 40  0     0  0            999 V2000
    5.6166    0.5712   -0.7497 C   0  0  0  0  0  0  0  0  0  0  0  0
    4.3151    1.3038   -1.0119 C   0  0  0  0  0  0  0  0  0  0  0  0
    3.2453    0.3710   -1.2763 O   0  0  0  0  0  0  0  0  0  0  0  0
    2.2507   -0.1288   -0.1409 P   0  0  0  0  0  0  0  0  0  0  0  0
    3.0815   -0.8561    1.4822 S   0  0  0  0  0  0  0  0  0  0  0  0
    1.3349   -1.1211   -0.9539 O   0  0  0  0  0  0  0  0  0  0  0  0
    1.5807   -2.5439   -1.0419 C   0  0  0  0  0  0  0  0  0  0  0  0
    0.3434   -3.2913   -0.5887 C   0  0  0  0  0  0  0  0  0  0  0  0
    0.9797    1.5287    0.1330 S   0  0  0  0  0  0  0  0  0  0  0  0
    0.2865    1.0207    1.7292 C   0  0  0  0  0  0  0  0  0  0  0  0
   -0.8431   -0.3955    1.6152 S   0  0  0  0  0  0  0  0  0  0  0  0
   -2.1564    0.2923    0.0912 P   0  0  0  0  0  0  0  0  0  0  0  0
   -1.7658   -0.1333   -1.7862 S   0  0  0  0  0  0  0  0  0  0  0  0
   -2.2193    1.8244    0.4816 O   0  0  0  0  0  0  0  0  0  0  0  0
   -2.5946    2.8354   -0.4770 C   0  0  0  0  0  0  0  0  0  0  0  0
   -4.0675    2.7590   -0.8183 C   0  0  0  0  0  0  0  0  0  0  0  0
   -3.5841   -0.2261    0.5659 O   0  0  0  0  0  0  0  0  0  0  0  0
   -4.1003   -1.5132    0.1959 C   0  0  0  0  0  0  0  0  0  0  0  0
   -3.4441   -2.6224    0.9928 C   0  0  0  0  0  0  0  0  0  0  0  0
    5.5358   -0.0299    0.1533 H   0  0  0  0  0  0  0  0  0  0  0  0
    5.8518   -0.0813   -1.5858 H   0  0  0  0  0  0  0  0  0  0  0  0
    6.4143    1.2958   -0.6225 H   0  0  0  0  0  0  0  0  0  0  0  0
    4.3757    1.9142   -1.9148 H   0  0  0  0  0  0  0  0  0  0  0  0
    4.0413    1.9357   -0.1622 H   0  0  0  0  0  0  0  0  0  0  0  0
    1.8091   -2.7455   -2.0898 H   0  0  0  0  0  0  0  0  0  0  0  0
    2.4450   -2.7958   -0.4188 H   0  0  0  0  0  0  0  0  0  0  0  0
    0.4875   -4.3545   -0.7494 H   0  0  0  0  0  0  0  0  0  0  0  0
    0.1624   -3.1079    0.4687 H   0  0  0  0  0  0  0  0  0  0  0  0
   -0.5165   -2.9526   -1.1621 H   0  0  0  0  0  0  0  0  0  0  0  0
   -0.2420    1.8800    2.1324 H   0  0  0  0  0  0  0  0  0  0  0  0
    1.0950    0.7015    2.3893 H   0  0  0  0  0  0  0  0  0  0  0  0
   -2.3378    3.7732    0.0171 H   0  0  0  0  0  0  0  0  0  0  0  0
   -1.9793    2.7093   -1.3739 H   0  0  0  0  0  0  0  0  0  0  0  0
   -4.2769    1.8267   -1.3411 H   0  0  0  0  0  0  0  0  0  0  0  0
   -4.6651    2.7954    0.0886 H   0  0  0  0  0  0  0  0  0  0  0  0
   -4.3318    3.5922   -1.4618 H   0  0  0  0  0  0  0  0  0  0  0  0
   -5.1689   -1.4441    0.4042 H   0  0  0  0  0  0  0  0  0  0  0  0
   -3.9390   -1.6565   -0.8784 H   0  0  0  0  0  0  0  0  0  0  0  0
   -3.5718   -2.4481    2.0577 H   0  0  0  0  0  0  0  0  0  0  0  0
   -3.8890   -3.5751    0.7249 H   0  0  0  0  0  0  0  0  0  0  0  0
   -2.3772   -2.6535    0.7728 H   0  0  0  0  0  0  0  0  0  0  0  0
  1  2  1  0  0  0  0
  2  3  1  0  0  0  0
  3  4  2  0  0  0  0
  4  5  2  0  0  0  0
  4  6  2  0  0  0  0
  6  7  1  0  0  0  0
  7  8  1  0  0  0  0
  4  9  1  0  0  0  0
  9 10  1  0  0  0  0
 10 11  1  0  0  0  0
 11 12  1  0  0  0  0
 12 13  2  0  0  0  0
 12 14  2  0  0  0  0
 14 15  1  0  0  0  0
 15 16  1  0  0  0  0
 12 17  2  0  0  0  0
 17 18  1  0  0  0  0
 18 19  1  0  0  0  0
  1 20  1  0  0  0  0
  1 21  1  0  0  0  0
  1 22  1  0  0  0  0
  2 23  1  0  0  0  0
  2 24  1  0  0  0  0
  7 25  1  0  0  0  0
  7 26  1  0  0  0  0
  8 27  1  0  0  0  0
  8 28  1  0  0  0  0
  8 29  1  0  0  0  0
 10 30  1  0  0  0  0
 10 31  1  0  0  0  0
 15 32  1  0  0  0  0
 15 33  1  0  0  0  0
 16 34  1  0  0  0  0
 16 35  1  0  0  0  0
 16 36  1  0  0  0  0
 18 37  1  0  0  0  0
 18 38  1  0  0  0  0
 19 39  1  0  0  0  0
 19 40  1  0  0  0  0
 19 41  1  0  0  0  0
M  END
