 xtb: 6.7.1 (edcfbbe)
          04112505053D

 41 40  0     0  0            999 V2000
    5.9169   -1.1702    0.5560 C   0  0  0  0  0  0  0  0  0  0  0  0
    4.5807   -1.4059   -0.1177 C   0  0  0  0  0  0  0  0  0  0  0  0
    3.7573   -0.2426    0.1163 O   0  0  0  0  0  0  0  0  0  0  0  0
    2.4142   -0.0088   -0.7010 P   0  0  0  0  0  0  0  0  0  0  0  0
    2.5773   -0.0578   -2.6478 S   0  0  0  0  0  0  0  0  0  0  0  0
    1.9537    1.3980   -0.1620 O   0  0  0  0  0  0  0  0  0  0  0  0
    1.8385    1.7017    1.2517 C   0  0  0  0  0  0  0  0  0  0  0  0
    0.8722    2.8579    1.4024 C   0  0  0  0  0  0  0  0  0  0  0  0
    1.1187   -1.4681    0.1487 S   0  0  0  0  0  0  0  0  0  0  0  0
   -0.1409   -1.4201   -1.1502 C   0  0  0  0  0  0  0  0  0  0  0  0
   -0.8457    0.2345   -1.4225 S   0  0  0  0  0  0  0  0  0  0  0  0
   -2.2046    0.2888    0.2036 P   0  0  0  0  0  0  0  0  0  0  0  0
   -3.2035    1.9635    0.3776 S   0  0  0  0  0  0  0  0  0  0  0  0
   -1.2576   -0.0959    1.4083 O   0  0  0  0  0  0  0  0  0  0  0  0
   -1.6133    0.2032    2.7766 C   0  0  0  0  0  0  0  0  0  0  0  0
   -2.8027   -0.6122    3.2348 C   0  0  0  0  0  0  0  0  0  0  0  0
   -3.0572   -1.0512    0.0331 O   0  0  0  0  0  0  0  0  0  0  0  0
   -4.1527   -1.1347   -0.8980 C   0  0  0  0  0  0  0  0  0  0  0  0
   -5.4707   -0.8650   -0.1981 C   0  0  0  0  0  0  0  0  0  0  0  0
    6.5507   -2.0369    0.4005 H   0  0  0  0  0  0  0  0  0  0  0  0
    6.3986   -0.2932    0.1328 H   0  0  0  0  0  0  0  0  0  0  0  0
    5.7739   -1.0147    1.6213 H   0  0  0  0  0  0  0  0  0  0  0  0
    4.0678   -2.2753    0.3020 H   0  0  0  0  0  0  0  0  0  0  0  0
    4.6906   -1.5403   -1.1985 H   0  0  0  0  0  0  0  0  0  0  0  0
    1.4820    0.8076    1.7726 H   0  0  0  0  0  0  0  0  0  0  0  0
    2.8342    1.9604    1.6157 H   0  0  0  0  0  0  0  0  0  0  0  0
    1.2280    3.7167    0.8406 H   0  0  0  0  0  0  0  0  0  0  0  0
   -0.1115    2.5870    1.0218 H   0  0  0  0  0  0  0  0  0  0  0  0
    0.7884    3.1218    2.4518 H   0  0  0  0  0  0  0  0  0  0  0  0
   -0.9232   -2.1150   -0.8559 H   0  0  0  0  0  0  0  0  0  0  0  0
    0.3157   -1.7012   -2.0986 H   0  0  0  0  0  0  0  0  0  0  0  0
   -0.7117   -0.0429    3.3388 H   0  0  0  0  0  0  0  0  0  0  0  0
   -1.8255    1.2741    2.8529 H   0  0  0  0  0  0  0  0  0  0  0  0
   -3.6891   -0.3141    2.6766 H   0  0  0  0  0  0  0  0  0  0  0  0
   -2.6194   -1.6704    3.0688 H   0  0  0  0  0  0  0  0  0  0  0  0
   -2.9750   -0.4351    4.2917 H   0  0  0  0  0  0  0  0  0  0  0  0
   -3.9906   -0.4232   -1.7139 H   0  0  0  0  0  0  0  0  0  0  0  0
   -4.1140   -2.1531   -1.2896 H   0  0  0  0  0  0  0  0  0  0  0  0
   -5.5996   -1.5531    0.6326 H   0  0  0  0  0  0  0  0  0  0  0  0
   -5.4936    0.1552    0.1790 H   0  0  0  0  0  0  0  0  0  0  0  0
   -6.2842   -0.9978   -0.9040 H   0  0  0  0  0  0  0  0  0  0  0  0
  1  2  1  0  0  0  0
  2  3  1  0  0  0  0
  3  4  2  0  0  0  0
  4  5  2  0  0  0  0
  4  6  2  0  0  0  0
  6  7  1  0  0  0  0
  7  8  1  0  0  0  0
  4  9  1  0  0  0  0
  9 10  1  0  0  0  0
 10 11  1  0  0  0  0
 11 12  1  0  0  0  0
 12 13  2  0  0  0  0
 12 14  2  0  0  0  0
 14 15  1  0  0  0  0
 15 16  1  0  0  0  0
 12 17  1  0  0  0  0
 17 18  1  0  0  0  0
 18 19  1  0  0  0  0
  1 20  1  0  0  0  0
  1 21  1  0  0  0  0
  1 22  1  0  0  0  0
  2 23  1  0  0  0  0
  2 24  1  0  0  0  0
  7 25  1  0  0  0  0
  7 26  1  0  0  0  0
  8 27  1  0  0  0  0
  8 28  1  0  0  0  0
  8 29  1  0  0  0  0
 10 30  1  0  0  0  0
 10 31  1  0  0  0  0
 15 32  1  0  0  0  0
 15 33  1  0  0  0  0
 16 34  1  0  0  0  0
 16 35  1  0  0  0  0
 16 36  1  0  0  0  0
 18 37  1  0  0  0  0
 18 38  1  0  0  0  0
 19 39  1  0  0  0  0
 19 40  1  0  0  0  0
 19 41  1  0  0  0  0
M  END
