 xtb: 6.7.1 (edcfbbe)
          04092507313D

 38 37  0     0  0            999 V2000
    3.3875   -3.0807    0.5834 C   0  0  0  0  0  0  0  0  0  0  0  0
    2.9469   -1.6814    0.9805 C   0  0  0  0  0  0  0  0  0  0  0  0
    2.7279   -0.8599   -0.1840 O   0  0  0  0  0  0  0  0  0  0  0  0
    1.5828   -0.9465   -0.8176 C   0  0  0  0  0  0  0  0  0  0  0  0
    0.6550   -1.6620   -0.4825 O   0  0  0  0  0  0  0  0  0  0  0  0
    1.5183   -0.0273   -2.0177 C   0  0  0  0  0  0  0  0  0  0  0  0
    0.3051    0.9000   -1.9008 C   0  0  0  0  0  0  0  0  0  0  0  0
    0.2134    1.4991   -2.8111 H   0  0  0  0  0  0  0  0  0  0  0  0
    0.4059    1.8360   -0.7082 C   0  0  0  0  0  0  0  0  0  0  0  0
   -0.5150    2.0086    0.0654 O   0  0  0  0  0  0  0  0  0  0  0  0
    1.5762    2.4094   -0.6367 O   0  0  0  0  0  0  0  0  0  0  0  0
    1.8680    3.2611    0.4932 C   0  0  0  0  0  0  0  0  0  0  0  0
    2.4901    2.4467    1.6152 C   0  0  0  0  0  0  0  0  0  0  0  0
   -1.2762   -0.0006   -1.7886 S   0  0  0  0  0  0  0  0  0  0  0  0
   -1.5200   -0.3686    0.2861 P   0  0  0  0  0  0  0  0  0  0  0  0
   -0.3975   -0.2045    1.8881 S   0  0  0  0  0  0  0  0  0  0  0  0
   -2.8809    0.5033    0.3806 O   0  0  0  0  0  0  0  0  0  0  0  0
   -3.5155    0.7429    1.6358 C   0  0  0  0  0  0  0  0  0  0  0  0
   -2.0568   -1.8795    0.3254 O   0  0  0  0  0  0  0  0  0  0  0  0
   -2.8979   -2.4330   -0.6950 C   0  0  0  0  0  0  0  0  0  0  0  0
    4.2701   -3.0305   -0.0483 H   0  0  0  0  0  0  0  0  0  0  0  0
    3.6174   -3.6479    1.4792 H   0  0  0  0  0  0  0  0  0  0  0  0
    2.5891   -3.5854    0.0440 H   0  0  0  0  0  0  0  0  0  0  0  0
    3.7266   -1.1590    1.5343 H   0  0  0  0  0  0  0  0  0  0  0  0
    2.0251   -1.7089    1.5690 H   0  0  0  0  0  0  0  0  0  0  0  0
    1.4009   -0.6396   -2.9127 H   0  0  0  0  0  0  0  0  0  0  0  0
    2.4336    0.5606   -2.0742 H   0  0  0  0  0  0  0  0  0  0  0  0
    2.5654    4.0005    0.0998 H   0  0  0  0  0  0  0  0  0  0  0  0
    0.9419    3.7385    0.8230 H   0  0  0  0  0  0  0  0  0  0  0  0
    2.7550    3.1068    2.4340 H   0  0  0  0  0  0  0  0  0  0  0  0
    1.7824    1.7027    1.9797 H   0  0  0  0  0  0  0  0  0  0  0  0
    3.3813    1.9381    1.2580 H   0  0  0  0  0  0  0  0  0  0  0  0
   -3.7760   -0.1997    2.1210 H   0  0  0  0  0  0  0  0  0  0  0  0
   -4.4082    1.3184    1.4046 H   0  0  0  0  0  0  0  0  0  0  0  0
   -2.8491    1.3118    2.2858 H   0  0  0  0  0  0  0  0  0  0  0  0
   -3.4177   -3.2646   -0.2250 H   0  0  0  0  0  0  0  0  0  0  0  0
   -2.2784   -2.7849   -1.5190 H   0  0  0  0  0  0  0  0  0  0  0  0
   -3.6088   -1.6874   -1.0548 H   0  0  0  0  0  0  0  0  0  0  0  0
  1  2  1  0  0  0  0
  2  3  1  0  0  0  0
  3  4  4  0  0  0  0
  4  5  2  0  0  0  0
  4  6  1  0  0  0  0
  6  7  1  0  0  0  0
  7  8  1  0  0  0  0
  7  9  1  0  0  0  0
  9 10  2  0  0  0  0
  9 11  4  0  0  0  0
 11 12  1  0  0  0  0
 12 13  1  0  0  0  0
  7 14  1  0  0  0  0
 14 15  1  0  0  0  0
 15 16  2  0  0  0  0
 15 17  1  0  0  0  0
 17 18  1  0  0  0  0
 15 19  1  0  0  0  0
 19 20  1  0  0  0  0
  1 21  1  0  0  0  0
  1 22  1  0  0  0  0
  1 23  1  0  0  0  0
  2 24  1  0  0  0  0
  2 25  1  0  0  0  0
  6 26  1  0  0  0  0
  6 27  1  0  0  0  0
 12 28  1  0  0  0  0
 12 29  1  0  0  0  0
 13 30  1  0  0  0  0
 13 31  1  0  0  0  0
 13 32  1  0  0  0  0
 18 33  1  0  0  0  0
 18 34  1  0  0  0  0
 18 35  1  0  0  0  0
 20 36  1  0  0  0  0
 20 37  1  0  0  0  0
 20 38  1  0  0  0  0
M  END
