 xtb: 6.7.1 (edcfbbe)
          04032519503D

 14 14  0     0  0            999 V2000
   -0.3373   -1.2081    0.0000 C   0  0  0  0  0  0  0  0  0  0  0  0
    1.0410   -1.2067   -0.0000 C   0  0  0  0  0  0  0  0  0  0  0  0
    1.7425   -0.0009   -0.0000 C   0  0  0  0  0  0  0  0  0  0  0  0
    1.0395    1.2069    0.0000 C   0  0  0  0  0  0  0  0  0  0  0  0
   -0.3361    1.2104    0.0001 C   0  0  0  0  0  0  0  0  0  0  0  0
   -1.0376    0.0004    0.0001 C   0  0  0  0  0  0  0  0  0  0  0  0
   -2.4445   -0.0006    0.0000 C   0  0  0  0  0  0  0  0  0  0  0  0
   -3.5945   -0.0035   -0.0001 N   0  0  0  0  0  0  0  0  0  0  0  0
    3.0880    0.0552   -0.0000 O   0  0  0  0  0  0  0  0  0  0  0  0
   -0.8824   -2.1395    0.0002 H   0  0  0  0  0  0  0  0  0  0  0  0
    1.5761   -2.1443    0.0000 H   0  0  0  0  0  0  0  0  0  0  0  0
    1.5991    2.1282   -0.0002 H   0  0  0  0  0  0  0  0  0  0  0  0
   -0.8805    2.1421    0.0000 H   0  0  0  0  0  0  0  0  0  0  0  0
    3.4826   -0.8315   -0.0001 H   0  0  0  0  0  0  0  0  0  0  0  0
  1  2  4  0  0  0  0
  2  3  4  0  0  0  0
  3  4  4  0  0  0  0
  4  5  4  0  0  0  0
  1  6  4  0  0  0  0
  5  6  4  0  0  0  0
  6  7  1  0  0  0  0
  7  8  3  0  0  0  0
  3  9  1  0  0  0  0
  1 10  1  0  0  0  0
  2 11  1  0  0  0  0
  4 12  1  0  0  0  0
  5 13  1  0  0  0  0
  9 14  1  0  0  0  0
M  END
