 xtb: 6.7.1 (edcfbbe)
          04092505213D

 41 40  0     0  0            999 V2000
    1.4126    2.1810    2.1729 C   0  0  0  0  0  0  0  0  0  0  0  0
    2.7857    1.5714    2.3741 C   0  0  0  0  0  0  0  0  0  0  0  0
    3.3304    1.0484    1.1495 O   0  0  0  0  0  0  0  0  0  0  0  0
    2.8567   -0.3203    0.5133 P   0  0  0  0  0  0  0  0  0  0  0  0
    2.5078   -1.7864    1.7752 S   0  0  0  0  0  0  0  0  0  0  0  0
    4.1203   -0.4936   -0.4256 O   0  0  0  0  0  0  0  0  0  0  0  0
    4.4865   -1.7602   -0.9987 C   0  0  0  0  0  0  0  0  0  0  0  0
    3.4825   -2.2464   -2.0257 C   0  0  0  0  0  0  0  0  0  0  0  0
    1.2692    0.1673   -0.8283 S   0  0  0  0  0  0  0  0  0  0  0  0
   -0.0364   -0.9219   -0.1842 C   0  0  0  0  0  0  0  0  0  0  0  0
   -1.2999   -0.0551    0.7772 S   0  0  0  0  0  0  0  0  0  0  0  0
   -2.7811    0.2103   -0.7459 P   0  0  0  0  0  0  0  0  0  0  0  0
   -2.3270   -0.4183   -2.5392 S   0  0  0  0  0  0  0  0  0  0  0  0
   -3.2212    1.7390   -0.6378 O   0  0  0  0  0  0  0  0  0  0  0  0
   -2.5686    2.7983   -1.3567 C   0  0  0  0  0  0  0  0  0  0  0  0
   -1.1904    3.1019   -0.8049 C   0  0  0  0  0  0  0  0  0  0  0  0
   -4.0602   -0.5126   -0.1763 O   0  0  0  0  0  0  0  0  0  0  0  0
   -4.5818   -0.2677    1.1569 C   0  0  0  0  0  0  0  0  0  0  0  0
   -4.4396   -1.5192    1.9996 C   0  0  0  0  0  0  0  0  0  0  0  0
    1.1152    2.6974    3.0799 H   0  0  0  0  0  0  0  0  0  0  0  0
    1.4359    2.8870    1.3466 H   0  0  0  0  0  0  0  0  0  0  0  0
    0.6797    1.4045    1.9573 H   0  0  0  0  0  0  0  0  0  0  0  0
    2.7503    0.7662    3.1156 H   0  0  0  0  0  0  0  0  0  0  0  0
    3.5148    2.3226    2.6821 H   0  0  0  0  0  0  0  0  0  0  0  0
    5.4600   -1.5679   -1.4520 H   0  0  0  0  0  0  0  0  0  0  0  0
    4.5930   -2.4904   -0.1898 H   0  0  0  0  0  0  0  0  0  0  0  0
    3.8774   -3.1263   -2.5237 H   0  0  0  0  0  0  0  0  0  0  0  0
    2.5443   -2.5112   -1.5394 H   0  0  0  0  0  0  0  0  0  0  0  0
    3.2895   -1.4716   -2.7637 H   0  0  0  0  0  0  0  0  0  0  0  0
    0.4217   -1.6588    0.4789 H   0  0  0  0  0  0  0  0  0  0  0  0
   -0.5166   -1.3904   -1.0436 H   0  0  0  0  0  0  0  0  0  0  0  0
   -2.5102    2.5169   -2.4129 H   0  0  0  0  0  0  0  0  0  0  0  0
   -3.2445    3.6466   -1.2368 H   0  0  0  0  0  0  0  0  0  0  0  0
   -1.2403    3.2516    0.2708 H   0  0  0  0  0  0  0  0  0  0  0  0
   -0.5083    2.2804   -1.0203 H   0  0  0  0  0  0  0  0  0  0  0  0
   -0.8081    4.0015   -1.2765 H   0  0  0  0  0  0  0  0  0  0  0  0
   -4.0494    0.5754    1.6023 H   0  0  0  0  0  0  0  0  0  0  0  0
   -5.6299   -0.0032    1.0093 H   0  0  0  0  0  0  0  0  0  0  0  0
   -3.3900   -1.7537    2.1588 H   0  0  0  0  0  0  0  0  0  0  0  0
   -4.9162   -1.3561    2.9609 H   0  0  0  0  0  0  0  0  0  0  0  0
   -4.9158   -2.3585    1.5005 H   0  0  0  0  0  0  0  0  0  0  0  0
  1  2  1  0  0  0  0
  2  3  1  0  0  0  0
  3  4  2  0  0  0  0
  4  5  2  0  0  0  0
  4  6  2  0  0  0  0
  6  7  1  0  0  0  0
  7  8  1  0  0  0  0
  4  9  1  0  0  0  0
  9 10  1  0  0  0  0
 10 11  1  0  0  0  0
 11 12  1  0  0  0  0
 12 13  2  0  0  0  0
 12 14  2  0  0  0  0
 14 15  1  0  0  0  0
 15 16  1  0  0  0  0
 12 17  2  0  0  0  0
 17 18  1  0  0  0  0
 18 19  1  0  0  0  0
  1 20  1  0  0  0  0
  1 21  1  0  0  0  0
  1 22  1  0  0  0  0
  2 23  1  0  0  0  0
  2 24  1  0  0  0  0
  7 25  1  0  0  0  0
  7 26  1  0  0  0  0
  8 27  1  0  0  0  0
  8 28  1  0  0  0  0
  8 29  1  0  0  0  0
 10 30  1  0  0  0  0
 10 31  1  0  0  0  0
 15 32  1  0  0  0  0
 15 33  1  0  0  0  0
 16 34  1  0  0  0  0
 16 35  1  0  0  0  0
 16 36  1  0  0  0  0
 18 37  1  0  0  0  0
 18 38  1  0  0  0  0
 19 39  1  0  0  0  0
 19 40  1  0  0  0  0
 19 41  1  0  0  0  0
M  END
