 xtb: 6.7.1 (edcfbbe)
          04092505203D

 41 40  0     0  0            999 V2000
    5.3324   -0.1658   -1.4363 C   0  0  0  0  0  0  0  0  0  0  0  0
    4.5305   -0.5784   -0.2176 C   0  0  0  0  0  0  0  0  0  0  0  0
    3.5630    0.4255    0.1457 O   0  0  0  0  0  0  0  0  0  0  0  0
    2.0921    0.5076   -0.4623 P   0  0  0  0  0  0  0  0  0  0  0  0
    1.9377    0.7749   -2.3929 S   0  0  0  0  0  0  0  0  0  0  0  0
    1.5105    1.7009    0.3806 O   0  0  0  0  0  0  0  0  0  0  0  0
    1.6312    1.7557    1.8265 C   0  0  0  0  0  0  0  0  0  0  0  0
    0.5701    2.7020    2.3460 C   0  0  0  0  0  0  0  0  0  0  0  0
    1.2491   -1.3032    0.2783 S   0  0  0  0  0  0  0  0  0  0  0  0
    0.1533   -1.7666   -1.0981 C   0  0  0  0  0  0  0  0  0  0  0  0
   -1.5417   -2.0714   -0.5590 S   0  0  0  0  0  0  0  0  0  0  0  0
   -2.0052   -0.0958    0.0851 P   0  0  0  0  0  0  0  0  0  0  0  0
   -1.3717    1.3459   -1.0797 S   0  0  0  0  0  0  0  0  0  0  0  0
   -1.4933    0.0429    1.5658 O   0  0  0  0  0  0  0  0  0  0  0  0
   -1.9110   -0.8715    2.6203 C   0  0  0  0  0  0  0  0  0  0  0  0
   -0.7262   -1.1404    3.5239 C   0  0  0  0  0  0  0  0  0  0  0  0
   -3.5779   -0.1747    0.2914 O   0  0  0  0  0  0  0  0  0  0  0  0
   -4.4828   -0.2505   -0.8293 C   0  0  0  0  0  0  0  0  0  0  0  0
   -5.8824    0.0063   -0.3093 C   0  0  0  0  0  0  0  0  0  0  0  0
    6.0843   -0.9209   -1.6413 H   0  0  0  0  0  0  0  0  0  0  0  0
    4.6813   -0.0664   -2.3020 H   0  0  0  0  0  0  0  0  0  0  0  0
    5.8195    0.7889   -1.2582 H   0  0  0  0  0  0  0  0  0  0  0  0
    5.1671   -0.6641    0.6652 H   0  0  0  0  0  0  0  0  0  0  0  0
    4.0138   -1.5268   -0.3888 H   0  0  0  0  0  0  0  0  0  0  0  0
    1.4973    0.7450    2.2240 H   0  0  0  0  0  0  0  0  0  0  0  0
    2.6379    2.1078    2.0588 H   0  0  0  0  0  0  0  0  0  0  0  0
   -0.4181    2.3306    2.0856 H   0  0  0  0  0  0  0  0  0  0  0  0
    0.6570    2.7794    3.4250 H   0  0  0  0  0  0  0  0  0  0  0  0
    0.6975    3.6842    1.8998 H   0  0  0  0  0  0  0  0  0  0  0  0
    0.5090   -2.7028   -1.5210 H   0  0  0  0  0  0  0  0  0  0  0  0
    0.1762   -0.9634   -1.8407 H   0  0  0  0  0  0  0  0  0  0  0  0
   -2.7255   -0.3803    3.1543 H   0  0  0  0  0  0  0  0  0  0  0  0
   -2.2797   -1.7928    2.1614 H   0  0  0  0  0  0  0  0  0  0  0  0
    0.0737   -1.6199    2.9644 H   0  0  0  0  0  0  0  0  0  0  0  0
   -0.3572   -0.2097    3.9451 H   0  0  0  0  0  0  0  0  0  0  0  0
   -1.0406   -1.7975    4.3282 H   0  0  0  0  0  0  0  0  0  0  0  0
   -4.1817    0.4974   -1.5701 H   0  0  0  0  0  0  0  0  0  0  0  0
   -4.3962   -1.2467   -1.2714 H   0  0  0  0  0  0  0  0  0  0  0  0
   -6.1407   -0.7355    0.4405 H   0  0  0  0  0  0  0  0  0  0  0  0
   -5.9388    0.9949    0.1375 H   0  0  0  0  0  0  0  0  0  0  0  0
   -6.5849   -0.0548   -1.1338 H   0  0  0  0  0  0  0  0  0  0  0  0
  1  2  1  0  0  0  0
  2  3  1  0  0  0  0
  3  4  2  0  0  0  0
  4  5  2  0  0  0  0
  4  6  2  0  0  0  0
  6  7  1  0  0  0  0
  7  8  1  0  0  0  0
  4  9  1  0  0  0  0
  9 10  1  0  0  0  0
 10 11  1  0  0  0  0
 11 12  1  0  0  0  0
 12 13  2  0  0  0  0
 12 14  2  0  0  0  0
 14 15  1  0  0  0  0
 15 16  1  0  0  0  0
 12 17  2  0  0  0  0
 17 18  1  0  0  0  0
 18 19  1  0  0  0  0
  1 20  1  0  0  0  0
  1 21  1  0  0  0  0
  1 22  1  0  0  0  0
  2 23  1  0  0  0  0
  2 24  1  0  0  0  0
  7 25  1  0  0  0  0
  7 26  1  0  0  0  0
  8 27  1  0  0  0  0
  8 28  1  0  0  0  0
  8 29  1  0  0  0  0
 10 30  1  0  0  0  0
 10 31  1  0  0  0  0
 15 32  1  0  0  0  0
 15 33  1  0  0  0  0
 16 34  1  0  0  0  0
 16 35  1  0  0  0  0
 16 36  1  0  0  0  0
 18 37  1  0  0  0  0
 18 38  1  0  0  0  0
 19 39  1  0  0  0  0
 19 40  1  0  0  0  0
 19 41  1  0  0  0  0
M  END
