41
 xtb: 6.7.1 (edcfbbe)
C            4.37751262644124       -2.46158505829034        0.33309444395438
C            4.21840574191172       -1.98209786421055       -1.08898171341808
O            2.85570289998456       -1.50058384323951       -1.36840332600754
P            2.29180260467902       -0.13958327337824       -0.72325359921303
S            3.46115865250295        1.41689161006465       -0.66822876179414
O            1.70765664417361       -0.61418988853138        0.70082278450464
C            1.99054415501590        0.07600436390847        1.96453763355625
C            1.15144980600091       -0.58757617447517        3.02610792011143
S            0.61087581102546       -0.03515071224813       -2.01673844106807
C           -0.01790927920146        1.63452755410701       -1.59810698365270
S           -0.70875222247721        1.88232866425981        0.08801051049568
P           -2.29811793441262        0.47735470231744        0.05838649394488
S           -3.29975041935554        0.36310129615391       -1.60729945253164
O           -3.10364155792854        0.91964082349124        1.38182789901261
C           -3.99781275877852        2.08725460072805        1.36321979354834
C           -4.65506041781261        2.16296410661823        2.71647911972199
O           -1.60461842717367       -0.86153797495934        0.59933299252959
C           -1.96954367849177       -2.20276436134544        0.12116637701696
C           -0.90154054527973       -3.14916937884447        0.60519241860140
H            4.32748615698850       -1.63708053071956        1.05040529714612
H            3.61391107796482       -3.20309466845752        0.58515731095049
H            5.36118269212930       -2.93280108299632        0.42961640850925
H            4.34711593702210       -2.79685636721208       -1.80373459914727
H            4.92032781639196       -1.17883016892623       -1.33385251303821
H            3.05982191925043       -0.01910322678048        2.17450145594403
H            1.73953665457750        1.13390897472012        1.85224659631203
H            1.38575016405862       -1.65345366246497        3.10200380848893
H            1.37084591226094       -0.11714590515560        3.98972727722744
H            0.08451518645707       -0.46866442236534        2.81822269796249
H           -0.79088656464292        1.84576189160940       -2.34240674610986
H            0.78838719922304        2.36826388119600       -1.69484176695905
H           -3.39801516939200        2.97887094851779        1.15254931921858
H           -4.72936451898833        1.94533964051526        0.56199422939063
H           -5.24575288598180        1.26412633842092        2.91448946403085
H           -3.91108244013740        2.28519327874274        3.50860283783999
H           -5.32507391631654        3.02785171128425        2.73501226459586
H           -2.95407983420699       -2.45070514251372        0.52916805893335
H           -2.02570836693106       -2.17825558191449       -0.97044275243300
H            0.07067181709956       -2.89905686123991        0.17071075237485
H           -0.82198591093627       -3.13099027767614        1.69593082782228
H           -1.16773658558230       -4.16468375895570        0.29560559986589
