 xtb: 6.7.1 (edcfbbe)
          04092509473D

 38 37  0     0  0            999 V2000
    5.3719   -2.0592   -2.0617 C   0  0  0  0  0  0  0  0  0  0  0  0
    4.9354   -1.2620   -0.8426 C   0  0  0  0  0  0  0  0  0  0  0  0
    3.6213   -1.6617   -0.4069 O   0  0  0  0  0  0  0  0  0  0  0  0
    2.5740   -1.1085   -0.9853 C   0  0  0  0  0  0  0  0  0  0  0  0
    2.6267   -0.2553   -1.8421 O   0  0  0  0  0  0  0  0  0  0  0  0
    1.2811   -1.6964   -0.4501 C   0  0  0  0  0  0  0  0  0  0  0  0
    0.2633   -0.5900   -0.2087 C   0  0  0  0  0  0  0  0  0  0  0  0
    0.1987    0.0573   -1.0947 H   0  0  0  0  0  0  0  0  0  0  0  0
    0.6187    0.3177    0.9558 C   0  0  0  0  0  0  0  0  0  0  0  0
   -0.2132    0.7616    1.7179 O   0  0  0  0  0  0  0  0  0  0  0  0
    1.9073    0.5554    1.0020 O   0  0  0  0  0  0  0  0  0  0  0  0
    2.4190    1.4981    1.9707 C   0  0  0  0  0  0  0  0  0  0  0  0
    2.2989    2.9227    1.4556 C   0  0  0  0  0  0  0  0  0  0  0  0
   -1.3863   -1.3089    0.0785 S   0  0  0  0  0  0  0  0  0  0  0  0
   -2.5572    0.4570    0.0087 P   0  0  0  0  0  0  0  0  0  0  0  0
   -1.8034    1.9745   -0.9676 S   0  0  0  0  0  0  0  0  0  0  0  0
   -3.9331   -0.1048   -0.6013 O   0  0  0  0  0  0  0  0  0  0  0  0
   -4.0654   -0.5109   -1.9678 C   0  0  0  0  0  0  0  0  0  0  0  0
   -3.0503    0.8242    1.4612 O   0  0  0  0  0  0  0  0  0  0  0  0
   -3.6373   -0.1544    2.3409 C   0  0  0  0  0  0  0  0  0  0  0  0
    4.7097   -1.8529   -2.8996 H   0  0  0  0  0  0  0  0  0  0  0  0
    6.3823   -1.7730   -2.3343 H   0  0  0  0  0  0  0  0  0  0  0  0
    5.3468   -3.1232   -1.8431 H   0  0  0  0  0  0  0  0  0  0  0  0
    4.9167   -0.1917   -1.0659 H   0  0  0  0  0  0  0  0  0  0  0  0
    5.5792   -1.4627    0.0137 H   0  0  0  0  0  0  0  0  0  0  0  0
    1.4835   -2.2586    0.4601 H   0  0  0  0  0  0  0  0  0  0  0  0
    0.8818   -2.3754   -1.2065 H   0  0  0  0  0  0  0  0  0  0  0  0
    1.8694    1.3720    2.9070 H   0  0  0  0  0  0  0  0  0  0  0  0
    3.4627    1.2083    2.0966 H   0  0  0  0  0  0  0  0  0  0  0  0
    2.8108    3.0221    0.5017 H   0  0  0  0  0  0  0  0  0  0  0  0
    1.2519    3.1858    1.3165 H   0  0  0  0  0  0  0  0  0  0  0  0
    2.7421    3.6044    2.1741 H   0  0  0  0  0  0  0  0  0  0  0  0
   -3.4947   -1.4222   -2.1458 H   0  0  0  0  0  0  0  0  0  0  0  0
   -3.7188    0.2829   -2.6309 H   0  0  0  0  0  0  0  0  0  0  0  0
   -5.1276   -0.6915   -2.1158 H   0  0  0  0  0  0  0  0  0  0  0  0
   -2.9569   -0.9975    2.4622 H   0  0  0  0  0  0  0  0  0  0  0  0
   -4.5887   -0.4938    1.9353 H   0  0  0  0  0  0  0  0  0  0  0  0
   -3.7773    0.3632    3.2860 H   0  0  0  0  0  0  0  0  0  0  0  0
  1  2  1  0  0  0  0
  2  3  1  0  0  0  0
  3  4  1  0  0  0  0
  4  5  2  0  0  0  0
  4  6  1  0  0  0  0
  6  7  1  0  0  0  0
  7  8  1  0  0  0  0
  7  9  1  0  0  0  0
  9 10  2  0  0  0  0
  9 11  4  0  0  0  0
 11 12  1  0  0  0  0
 12 13  1  0  0  0  0
  7 14  1  0  0  0  0
 14 15  1  0  0  0  0
 15 16  2  0  0  0  0
 15 17  1  0  0  0  0
 17 18  1  0  0  0  0
 15 19  2  0  0  0  0
 19 20  1  0  0  0  0
  1 21  1  0  0  0  0
  1 22  1  0  0  0  0
  1 23  1  0  0  0  0
  2 24  1  0  0  0  0
  2 25  1  0  0  0  0
  6 26  1  0  0  0  0
  6 27  1  0  0  0  0
 12 28  1  0  0  0  0
 12 29  1  0  0  0  0
 13 30  1  0  0  0  0
 13 31  1  0  0  0  0
 13 32  1  0  0  0  0
 18 33  1  0  0  0  0
 18 34  1  0  0  0  0
 18 35  1  0  0  0  0
 20 36  1  0  0  0  0
 20 37  1  0  0  0  0
 20 38  1  0  0  0  0
M  END
