 xtb: 6.7.1 (edcfbbe)
          04092513583D

 41 40  0     0  0            999 V2000
    3.0544    0.4735    3.2601 C   0  0  0  0  0  0  0  0  0  0  0  0
    1.7099    0.0302    2.7237 C   0  0  0  0  0  0  0  0  0  0  0  0
    1.4925    0.5071    1.3786 O   0  0  0  0  0  0  0  0  0  0  0  0
    2.2228   -0.1152    0.1232 P   0  0  0  0  0  0  0  0  0  0  0  0
    2.7242   -2.0083    0.2680 S   0  0  0  0  0  0  0  0  0  0  0  0
    3.4007    0.9277   -0.1011 O   0  0  0  0  0  0  0  0  0  0  0  0
    4.3553    0.8013   -1.1753 C   0  0  0  0  0  0  0  0  0  0  0  0
    5.6488    0.1845   -0.6778 C   0  0  0  0  0  0  0  0  0  0  0  0
    0.8731    0.3704   -1.4398 S   0  0  0  0  0  0  0  0  0  0  0  0
   -0.1251   -1.1413   -1.3566 C   0  0  0  0  0  0  0  0  0  0  0  0
   -1.1648   -1.2292    0.1176 S   0  0  0  0  0  0  0  0  0  0  0  0
   -2.5929    0.2396   -0.4991 P   0  0  0  0  0  0  0  0  0  0  0  0
   -3.0113    0.2656   -2.4081 S   0  0  0  0  0  0  0  0  0  0  0  0
   -2.0322    1.6437   -0.0537 O   0  0  0  0  0  0  0  0  0  0  0  0
   -1.6809    1.9415    1.3209 C   0  0  0  0  0  0  0  0  0  0  0  0
   -0.7185    3.1101    1.3167 C   0  0  0  0  0  0  0  0  0  0  0  0
   -3.7771    0.0433    0.5429 O   0  0  0  0  0  0  0  0  0  0  0  0
   -4.4283   -1.1977    0.8762 C   0  0  0  0  0  0  0  0  0  0  0  0
   -5.0521   -1.8797   -0.3233 C   0  0  0  0  0  0  0  0  0  0  0  0
    3.1420    0.1737    4.2999 H   0  0  0  0  0  0  0  0  0  0  0  0
    3.8539    0.0060    2.6872 H   0  0  0  0  0  0  0  0  0  0  0  0
    3.1531    1.5530    3.1849 H   0  0  0  0  0  0  0  0  0  0  0  0
    0.8864    0.4622    3.2940 H   0  0  0  0  0  0  0  0  0  0  0  0
    1.6305   -1.0617    2.7241 H   0  0  0  0  0  0  0  0  0  0  0  0
    3.9204    0.2023   -1.9808 H   0  0  0  0  0  0  0  0  0  0  0  0
    4.5136    1.8217   -1.5298 H   0  0  0  0  0  0  0  0  0  0  0  0
    6.0457    0.7656    0.1498 H   0  0  0  0  0  0  0  0  0  0  0  0
    5.4775   -0.8365   -0.3435 H   0  0  0  0  0  0  0  0  0  0  0  0
    6.3722    0.1746   -1.4870 H   0  0  0  0  0  0  0  0  0  0  0  0
    0.5320   -2.0108   -1.3288 H   0  0  0  0  0  0  0  0  0  0  0  0
   -0.7587   -1.1425   -2.2447 H   0  0  0  0  0  0  0  0  0  0  0  0
   -2.6029    2.1772    1.8555 H   0  0  0  0  0  0  0  0  0  0  0  0
   -1.2239    1.0503    1.7627 H   0  0  0  0  0  0  0  0  0  0  0  0
   -0.4603    3.3616    2.3405 H   0  0  0  0  0  0  0  0  0  0  0  0
    0.1861    2.8482    0.7730 H   0  0  0  0  0  0  0  0  0  0  0  0
   -1.1786    3.9695    0.8378 H   0  0  0  0  0  0  0  0  0  0  0  0
   -3.6935   -1.8507    1.3549 H   0  0  0  0  0  0  0  0  0  0  0  0
   -5.1872   -0.8978    1.6014 H   0  0  0  0  0  0  0  0  0  0  0  0
   -4.2815   -2.1801   -1.0314 H   0  0  0  0  0  0  0  0  0  0  0  0
   -5.5919   -2.7612    0.0084 H   0  0  0  0  0  0  0  0  0  0  0  0
   -5.7394   -1.2064   -0.8297 H   0  0  0  0  0  0  0  0  0  0  0  0
  1  2  1  0  0  0  0
  2  3  1  0  0  0  0
  3  4  2  0  0  0  0
  4  5  2  0  0  0  0
  4  6  2  0  0  0  0
  6  7  1  0  0  0  0
  7  8  1  0  0  0  0
  4  9  1  0  0  0  0
  9 10  1  0  0  0  0
 10 11  1  0  0  0  0
 11 12  1  0  0  0  0
 12 13  2  0  0  0  0
 12 14  2  0  0  0  0
 14 15  1  0  0  0  0
 15 16  1  0  0  0  0
 12 17  2  0  0  0  0
 17 18  1  0  0  0  0
 18 19  1  0  0  0  0
  1 20  1  0  0  0  0
  1 21  1  0  0  0  0
  1 22  1  0  0  0  0
  2 23  1  0  0  0  0
  2 24  1  0  0  0  0
  7 25  1  0  0  0  0
  7 26  1  0  0  0  0
  8 27  1  0  0  0  0
  8 28  1  0  0  0  0
  8 29  1  0  0  0  0
 10 30  1  0  0  0  0
 10 31  1  0  0  0  0
 15 32  1  0  0  0  0
 15 33  1  0  0  0  0
 16 34  1  0  0  0  0
 16 35  1  0  0  0  0
 16 36  1  0  0  0  0
 18 37  1  0  0  0  0
 18 38  1  0  0  0  0
 19 39  1  0  0  0  0
 19 40  1  0  0  0  0
 19 41  1  0  0  0  0
M  END
