 xtb: 6.7.1 (edcfbbe)
          04032519433D

  3  2  0     0  0            999 V2000
    0.0000   -0.0542    0.0000 S   0  0  0  0  0  0  0  0  0  0  0  0
   -0.9536    0.8626    0.0000 H   0  0  0  0  0  0  0  0  0  0  0  0
    0.9536    0.8626    0.0000 H   0  0  0  0  0  0  0  0  0  0  0  0
  1  2  1  0  0  0  0
  1  3  1  0  0  0  0
M  END
