 xtb: 6.7.1 (edcfbbe)
          04092505203D

 41 40  0     0  0            999 V2000
    3.0182   -1.2705   -2.4425 C   0  0  0  0  0  0  0  0  0  0  0  0
    3.3469    0.1702   -2.1168 C   0  0  0  0  0  0  0  0  0  0  0  0
    2.3731    0.7683   -1.2248 O   0  0  0  0  0  0  0  0  0  0  0  0
    2.0783    0.3239    0.2489 P   0  0  0  0  0  0  0  0  0  0  0  0
    1.1221    1.6899    1.2786 S   0  0  0  0  0  0  0  0  0  0  0  0
    3.5564    0.0412    0.7796 O   0  0  0  0  0  0  0  0  0  0  0  0
    3.7983   -0.3381    2.1483 C   0  0  0  0  0  0  0  0  0  0  0  0
    5.2946   -0.3000    2.3835 C   0  0  0  0  0  0  0  0  0  0  0  0
    1.1852   -1.6159    0.3093 S   0  0  0  0  0  0  0  0  0  0  0  0
   -0.1423   -1.3260    1.5126 C   0  0  0  0  0  0  0  0  0  0  0  0
   -1.8236   -1.4732    0.8419 S   0  0  0  0  0  0  0  0  0  0  0  0
   -1.9663    0.2161   -0.4386 P   0  0  0  0  0  0  0  0  0  0  0  0
   -0.6338    0.4096   -1.8616 S   0  0  0  0  0  0  0  0  0  0  0  0
   -2.0536    1.5074    0.4522 O   0  0  0  0  0  0  0  0  0  0  0  0
   -2.7061    1.6438    1.7387 C   0  0  0  0  0  0  0  0  0  0  0  0
   -4.1778    1.2965    1.6940 C   0  0  0  0  0  0  0  0  0  0  0  0
   -3.4444    0.0495   -0.9934 O   0  0  0  0  0  0  0  0  0  0  0  0
   -3.7660   -0.9209   -2.0096 C   0  0  0  0  0  0  0  0  0  0  0  0
   -5.0304   -0.4656   -2.7096 C   0  0  0  0  0  0  0  0  0  0  0  0
    3.6910   -1.6231   -3.2179 H   0  0  0  0  0  0  0  0  0  0  0  0
    3.1331   -1.8980   -1.5597 H   0  0  0  0  0  0  0  0  0  0  0  0
    1.9917   -1.3449   -2.7956 H   0  0  0  0  0  0  0  0  0  0  0  0
    3.2844    0.8045   -3.0024 H   0  0  0  0  0  0  0  0  0  0  0  0
    4.3320    0.2611   -1.6554 H   0  0  0  0  0  0  0  0  0  0  0  0
    3.2699    0.3647    2.8009 H   0  0  0  0  0  0  0  0  0  0  0  0
    3.3959   -1.3439    2.3010 H   0  0  0  0  0  0  0  0  0  0  0  0
    5.4996   -0.5825    3.4107 H   0  0  0  0  0  0  0  0  0  0  0  0
    5.7949   -0.9923    1.7128 H   0  0  0  0  0  0  0  0  0  0  0  0
    5.6747    0.7018    2.2043 H   0  0  0  0  0  0  0  0  0  0  0  0
   -0.0008   -0.3289    1.9393 H   0  0  0  0  0  0  0  0  0  0  0  0
   -0.0765   -2.1010    2.2718 H   0  0  0  0  0  0  0  0  0  0  0  0
   -2.1759    1.0183    2.4613 H   0  0  0  0  0  0  0  0  0  0  0  0
   -2.5405    2.6944    1.9831 H   0  0  0  0  0  0  0  0  0  0  0  0
   -4.3115    0.2350    1.4982 H   0  0  0  0  0  0  0  0  0  0  0  0
   -4.6238    1.5395    2.6536 H   0  0  0  0  0  0  0  0  0  0  0  0
   -4.6734    1.8651    0.9118 H   0  0  0  0  0  0  0  0  0  0  0  0
   -2.9240   -0.9886   -2.7072 H   0  0  0  0  0  0  0  0  0  0  0  0
   -3.9055   -1.8878   -1.5195 H   0  0  0  0  0  0  0  0  0  0  0  0
   -5.8423   -0.3810   -1.9934 H   0  0  0  0  0  0  0  0  0  0  0  0
   -4.8695    0.5023   -3.1765 H   0  0  0  0  0  0  0  0  0  0  0  0
   -5.2955   -1.1912   -3.4715 H   0  0  0  0  0  0  0  0  0  0  0  0
  1  2  1  0  0  0  0
  2  3  1  0  0  0  0
  3  4  2  0  0  0  0
  4  5  2  0  0  0  0
  4  6  2  0  0  0  0
  6  7  1  0  0  0  0
  7  8  1  0  0  0  0
  4  9  1  0  0  0  0
  9 10  1  0  0  0  0
 10 11  1  0  0  0  0
 11 12  1  0  0  0  0
 12 13  2  0  0  0  0
 12 14  2  0  0  0  0
 14 15  1  0  0  0  0
 15 16  1  0  0  0  0
 12 17  2  0  0  0  0
 17 18  1  0  0  0  0
 18 19  1  0  0  0  0
  1 20  1  0  0  0  0
  1 21  1  0  0  0  0
  1 22  1  0  0  0  0
  2 23  1  0  0  0  0
  2 24  1  0  0  0  0
  7 25  1  0  0  0  0
  7 26  1  0  0  0  0
  8 27  1  0  0  0  0
  8 28  1  0  0  0  0
  8 29  1  0  0  0  0
 10 30  1  0  0  0  0
 10 31  1  0  0  0  0
 15 32  1  0  0  0  0
 15 33  1  0  0  0  0
 16 34  1  0  0  0  0
 16 35  1  0  0  0  0
 16 36  1  0  0  0  0
 18 37  1  0  0  0  0
 18 38  1  0  0  0  0
 19 39  1  0  0  0  0
 19 40  1  0  0  0  0
 19 41  1  0  0  0  0
M  END
