 xtb: 6.7.1 (edcfbbe)
          04092505203D

 41 40  0     0  0            999 V2000
    4.8058   -0.8294   -1.3818 C   0  0  0  0  0  0  0  0  0  0  0  0
    4.4520   -0.6541    0.0798 C   0  0  0  0  0  0  0  0  0  0  0  0
    3.5097    0.4112    0.3068 O   0  0  0  0  0  0  0  0  0  0  0  0
    2.0693    0.5368   -0.3588 P   0  0  0  0  0  0  0  0  0  0  0  0
    1.9795    1.0882   -2.2328 S   0  0  0  0  0  0  0  0  0  0  0  0
    1.4029    1.6142    0.5780 O   0  0  0  0  0  0  0  0  0  0  0  0
    1.4117    1.5337    2.0235 C   0  0  0  0  0  0  0  0  0  0  0  0
    2.4939    2.4212    2.6026 C   0  0  0  0  0  0  0  0  0  0  0  0
    1.2270   -1.3644    0.0992 S   0  0  0  0  0  0  0  0  0  0  0  0
    0.1230   -1.5893   -1.3282 C   0  0  0  0  0  0  0  0  0  0  0  0
   -1.5855   -1.9011   -0.8432 S   0  0  0  0  0  0  0  0  0  0  0  0
   -1.9876   -0.0104    0.0486 P   0  0  0  0  0  0  0  0  0  0  0  0
   -1.4323    1.5134   -1.0557 S   0  0  0  0  0  0  0  0  0  0  0  0
   -1.3400    0.0426    1.4832 O   0  0  0  0  0  0  0  0  0  0  0  0
   -1.8279   -0.6438    2.6687 C   0  0  0  0  0  0  0  0  0  0  0  0
   -1.7015   -2.1490    2.5656 C   0  0  0  0  0  0  0  0  0  0  0  0
   -3.5363   -0.1014    0.3761 O   0  0  0  0  0  0  0  0  0  0  0  0
   -4.5224   -0.0731   -0.6771 C   0  0  0  0  0  0  0  0  0  0  0  0
   -5.8693    0.2065   -0.0425 C   0  0  0  0  0  0  0  0  0  0  0  0
    3.9318   -1.1476   -1.9477 H   0  0  0  0  0  0  0  0  0  0  0  0
    5.1578    0.1094   -1.8025 H   0  0  0  0  0  0  0  0  0  0  0  0
    5.5833   -1.5807   -1.4754 H   0  0  0  0  0  0  0  0  0  0  0  0
    5.3225   -0.3515    0.6648 H   0  0  0  0  0  0  0  0  0  0  0  0
    4.0308   -1.5760    0.4900 H   0  0  0  0  0  0  0  0  0  0  0  0
    0.4162    1.8715    2.3190 H   0  0  0  0  0  0  0  0  0  0  0  0
    1.5494    0.4895    2.3190 H   0  0  0  0  0  0  0  0  0  0  0  0
    2.4369    2.3890    3.6861 H   0  0  0  0  0  0  0  0  0  0  0  0
    3.4738    2.0789    2.2809 H   0  0  0  0  0  0  0  0  0  0  0  0
    2.3532    3.4443    2.2644 H   0  0  0  0  0  0  0  0  0  0  0  0
    0.4473   -2.4718   -1.8739 H   0  0  0  0  0  0  0  0  0  0  0  0
    0.1828   -0.6934   -1.9539 H   0  0  0  0  0  0  0  0  0  0  0  0
   -1.1928   -0.2432    3.4605 H   0  0  0  0  0  0  0  0  0  0  0  0
   -2.8638   -0.3437    2.8319 H   0  0  0  0  0  0  0  0  0  0  0  0
   -0.6890   -2.4262    2.2801 H   0  0  0  0  0  0  0  0  0  0  0  0
   -1.9312   -2.5854    3.5327 H   0  0  0  0  0  0  0  0  0  0  0  0
   -2.3950   -2.5430    1.8265 H   0  0  0  0  0  0  0  0  0  0  0  0
   -4.2428    0.7061   -1.3938 H   0  0  0  0  0  0  0  0  0  0  0  0
   -4.5095   -1.0433   -1.1804 H   0  0  0  0  0  0  0  0  0  0  0  0
   -5.8524    1.1686    0.4621 H   0  0  0  0  0  0  0  0  0  0  0  0
   -6.6293    0.2227   -0.8166 H   0  0  0  0  0  0  0  0  0  0  0  0
   -6.1081   -0.5684    0.6799 H   0  0  0  0  0  0  0  0  0  0  0  0
  1  2  1  0  0  0  0
  2  3  1  0  0  0  0
  3  4  2  0  0  0  0
  4  5  2  0  0  0  0
  4  6  2  0  0  0  0
  6  7  1  0  0  0  0
  7  8  1  0  0  0  0
  4  9  1  0  0  0  0
  9 10  1  0  0  0  0
 10 11  1  0  0  0  0
 11 12  1  0  0  0  0
 12 13  2  0  0  0  0
 12 14  2  0  0  0  0
 14 15  1  0  0  0  0
 15 16  1  0  0  0  0
 12 17  2  0  0  0  0
 17 18  1  0  0  0  0
 18 19  1  0  0  0  0
  1 20  1  0  0  0  0
  1 21  1  0  0  0  0
  1 22  1  0  0  0  0
  2 23  1  0  0  0  0
  2 24  1  0  0  0  0
  7 25  1  0  0  0  0
  7 26  1  0  0  0  0
  8 27  1  0  0  0  0
  8 28  1  0  0  0  0
  8 29  1  0  0  0  0
 10 30  1  0  0  0  0
 10 31  1  0  0  0  0
 15 32  1  0  0  0  0
 15 33  1  0  0  0  0
 16 34  1  0  0  0  0
 16 35  1  0  0  0  0
 16 36  1  0  0  0  0
 18 37  1  0  0  0  0
 18 38  1  0  0  0  0
 19 39  1  0  0  0  0
 19 40  1  0  0  0  0
 19 41  1  0  0  0  0
M  END
