9
 xtb: 6.7.1 (edcfbbe)
C           -1.84670645353088       -0.64721474459241       -0.13586127758910
C           -1.35261284861868        0.52387040577574        0.25016827632237
C            0.07131527820188        0.94654946500827        0.32719814336958
Cl           1.26348987060407       -0.34193624367863       -0.18080931703771
H           -2.91916873231086       -0.81343986688705       -0.14079571331147
H           -1.20940023308319       -1.46665862038972       -0.45386120622854
H           -2.02806134664831        1.32163131620151        0.56266963087212
H            0.25704459555749        1.80807316231225       -0.32080420227044
H            0.33983444009454        1.22624860268012        1.35009908756784
