 xtb: 6.7.1 (edcfbbe)
          04092505213D

 41 40  0     0  0            999 V2000
    1.4699   -0.3547   -3.2414 C   0  0  0  0  0  0  0  0  0  0  0  0
    2.3434   -1.2765   -2.4138 C   0  0  0  0  0  0  0  0  0  0  0  0
    3.0657   -0.5541   -1.3986 O   0  0  0  0  0  0  0  0  0  0  0  0
    2.4497   -0.1130   -0.0102 P   0  0  0  0  0  0  0  0  0  0  0  0
    1.2076    1.4186    0.0097 S   0  0  0  0  0  0  0  0  0  0  0  0
    3.8421    0.1736    0.6822 O   0  0  0  0  0  0  0  0  0  0  0  0
    3.9559    0.9973    1.8535 C   0  0  0  0  0  0  0  0  0  0  0  0
    3.3107    0.3556    3.0663 C   0  0  0  0  0  0  0  0  0  0  0  0
    1.7485   -1.9369    0.8360 S   0  0  0  0  0  0  0  0  0  0  0  0
    0.0137   -1.5392    1.1514 C   0  0  0  0  0  0  0  0  0  0  0  0
   -0.9628   -1.3025   -0.3699 S   0  0  0  0  0  0  0  0  0  0  0  0
   -2.0961    0.4210    0.1962 P   0  0  0  0  0  0  0  0  0  0  0  0
   -1.8376    1.0619    2.0246 S   0  0  0  0  0  0  0  0  0  0  0  0
   -3.5866   -0.0492   -0.1267 O   0  0  0  0  0  0  0  0  0  0  0  0
   -4.2526   -1.0356    0.6853 C   0  0  0  0  0  0  0  0  0  0  0  0
   -5.7275   -1.0039    0.3395 C   0  0  0  0  0  0  0  0  0  0  0  0
   -1.8942    1.5189   -0.9062 O   0  0  0  0  0  0  0  0  0  0  0  0
   -2.1489    1.2696   -2.3152 C   0  0  0  0  0  0  0  0  0  0  0  0
   -1.4524    2.3574   -3.1047 C   0  0  0  0  0  0  0  0  0  0  0  0
    2.0712    0.4311   -3.6905 H   0  0  0  0  0  0  0  0  0  0  0  0
    0.9790   -0.9273   -4.0214 H   0  0  0  0  0  0  0  0  0  0  0  0
    0.7143    0.1057   -2.6088 H   0  0  0  0  0  0  0  0  0  0  0  0
    3.1286   -1.7322   -3.0195 H   0  0  0  0  0  0  0  0  0  0  0  0
    1.7426   -2.0611   -1.9413 H   0  0  0  0  0  0  0  0  0  0  0  0
    5.0321    1.1160    1.9860 H   0  0  0  0  0  0  0  0  0  0  0  0
    3.4986    1.9703    1.6448 H   0  0  0  0  0  0  0  0  0  0  0  0
    3.6759   -0.6602    3.1950 H   0  0  0  0  0  0  0  0  0  0  0  0
    3.5450    0.9391    3.9509 H   0  0  0  0  0  0  0  0  0  0  0  0
    2.2277    0.3312    2.9441 H   0  0  0  0  0  0  0  0  0  0  0  0
   -0.0712   -0.6271    1.7483 H   0  0  0  0  0  0  0  0  0  0  0  0
   -0.3834   -2.3964    1.6893 H   0  0  0  0  0  0  0  0  0  0  0  0
   -3.8121   -2.0122    0.4645 H   0  0  0  0  0  0  0  0  0  0  0  0
   -4.0809   -0.7920    1.7391 H   0  0  0  0  0  0  0  0  0  0  0  0
   -6.1380   -0.0202    0.5493 H   0  0  0  0  0  0  0  0  0  0  0  0
   -5.8672   -1.2271   -0.7141 H   0  0  0  0  0  0  0  0  0  0  0  0
   -6.2487   -1.7445    0.9370 H   0  0  0  0  0  0  0  0  0  0  0  0
   -1.7650    0.2763   -2.5670 H   0  0  0  0  0  0  0  0  0  0  0  0
   -3.2297    1.2873   -2.4658 H   0  0  0  0  0  0  0  0  0  0  0  0
   -0.3913    2.3683   -2.8685 H   0  0  0  0  0  0  0  0  0  0  0  0
   -1.5852    2.1714   -4.1653 H   0  0  0  0  0  0  0  0  0  0  0  0
   -1.8690    3.3274   -2.8497 H   0  0  0  0  0  0  0  0  0  0  0  0
  1  2  1  0  0  0  0
  2  3  1  0  0  0  0
  3  4  2  0  0  0  0
  4  5  2  0  0  0  0
  4  6  2  0  0  0  0
  6  7  1  0  0  0  0
  7  8  1  0  0  0  0
  4  9  1  0  0  0  0
  9 10  1  0  0  0  0
 10 11  1  0  0  0  0
 11 12  1  0  0  0  0
 12 13  2  0  0  0  0
 12 14  2  0  0  0  0
 14 15  1  0  0  0  0
 15 16  1  0  0  0  0
 12 17  2  0  0  0  0
 17 18  1  0  0  0  0
 18 19  1  0  0  0  0
  1 20  1  0  0  0  0
  1 21  1  0  0  0  0
  1 22  1  0  0  0  0
  2 23  1  0  0  0  0
  2 24  1  0  0  0  0
  7 25  1  0  0  0  0
  7 26  1  0  0  0  0
  8 27  1  0  0  0  0
  8 28  1  0  0  0  0
  8 29  1  0  0  0  0
 10 30  1  0  0  0  0
 10 31  1  0  0  0  0
 15 32  1  0  0  0  0
 15 33  1  0  0  0  0
 16 34  1  0  0  0  0
 16 35  1  0  0  0  0
 16 36  1  0  0  0  0
 18 37  1  0  0  0  0
 18 38  1  0  0  0  0
 19 39  1  0  0  0  0
 19 40  1  0  0  0  0
 19 41  1  0  0  0  0
M  END
