38
 xtb: 6.7.1 (edcfbbe)
C            3.53839223428350       -4.13252918056327       -0.92641526330700
C            4.26607922817529       -2.87537822142613       -1.34091223828796
O            3.34145310957765       -1.91815976938892       -1.95979357305741
C            2.62418217835349       -1.14669429485326       -1.13490836445436
O            2.69317886997019       -1.18175116001503        0.08166127431010
C            1.74655880785570       -0.19366405891760       -1.90588874241249
C            0.65623997976217        0.44002997635122       -1.04522278061388
H            0.13438029863151        1.18664643934991       -1.65613272488292
C            1.25461671618597        1.21106947179783        0.12432328494355
O            2.16840480439258        1.99851718706919       -0.05309798935846
O            0.65058412888351        0.98951888313691        1.28317229393078
C            1.07652246335028        1.79339933624880        2.43399590687854
C            0.37260605325280        3.12913365504791        2.43186240140280
S           -0.58872216568785       -0.86161397264047       -0.61774154536048
P           -2.24727545147834        0.32213013856173       -0.04576986267860
S           -2.43595308556800        2.06667407278586       -0.88266051026225
O           -3.35280696906000       -0.80852957943245       -0.37380613256631
C           -4.73560981336819       -0.56247666277773        0.02364193716154
O           -2.27714360461311        0.49233058916471        1.55782484227420
C           -2.06166213936369       -0.66067116877016        2.42279125328600
H            2.79997599629191       -3.92919494091040       -0.14644836808622
H            3.03696315420538       -4.59099885535355       -1.78340642720867
H            4.26694156579591       -4.84789943161146       -0.53210029474381
H            4.99614327576101       -3.07388380563976       -2.12706990825235
H            4.76312710015943       -2.38604736102443       -0.50003067204803
H            1.31800746161451       -0.69301647188667       -2.77791418401128
H            2.39549436737971        0.60373478926708       -2.28743061193567
H            0.78674133187210        1.18485188205724        3.29247334150589
H            2.16419830537491        1.89194705034392        2.40648661987728
H            0.64527476740583        3.72257798331256        1.55497742039989
H           -0.71269309775431        2.99402141901490        2.44856555052667
H            0.66504413285553        3.68489592967693        3.32812211031089
H           -5.28281733693314       -1.46202325877996       -0.25667237100689
H           -5.13031995004792        0.30191744836053       -0.51698973256334
H           -4.80105994684880       -0.40217733970683        1.10310752889257
H           -2.69145479493509       -1.50058457341618        2.11652644167944
H           -2.34033010027596       -0.33086074822914        3.42381913188879
H           -1.00747415502360       -0.94745235004710        2.39940279844219
