  23
 
 C         -2.4702553548       -0.8068518877       -0.3073256761
 C         -1.4665101975        0.2807955060       -0.0439247239
 O         -1.5640177278        1.3726919338       -0.5696689336
 C         -0.3658769367       -0.0527705392        0.9458598420
 C          0.6748990360        1.0670933911        1.0421953668
 C          1.5290637717        1.1444929222       -0.2213460828
 C          2.2008785033       -0.1947494217       -0.5073049217
 C          1.1500059803       -1.2928280965       -0.6366928593
 C          0.3279536577       -1.3875081361        0.6454205208
 H         -2.0533249765       -1.4995702585       -1.0356297352
 H         -2.6999481110       -1.3557111519        0.6003250627
 H         -3.3738424067       -0.3735027515       -0.7280270600
 H         -0.8777126385       -0.1391765613        1.9131401162
 H          0.1663360716        2.0211320732        1.1954468736
 H          1.3180051670        0.8790107867        1.9041839976
 H          0.8931263039        1.4234026759       -1.0643147621
 H          2.2833358775        1.9249178621       -0.1031891435
 H          2.7867137288       -0.1261311992       -1.4258306958
 H          2.8833323036       -0.4405882364        0.3095264954
 H          0.4952287717       -1.0627139660       -1.4808965339
 H          1.6333929201       -2.2509975513       -0.8358708017
 H         -0.3999408684       -2.1940125822        0.5714315467
 H          0.9973239997       -1.6173138891        1.4765905538
          23
        -28.35515756
 C         -2.7472241513        0.6525657421        0.7945753984
 C         -1.7534326570       -0.0947883052       -0.0437847460
 O         -2.0787300391       -0.7468485650       -1.0172163968
 C         -0.3096106195        0.0384615450        0.3922784683
 C          0.3300764498        1.1589711017       -0.4456678228
 C          1.7999961525        1.3288665932       -0.0749947841
 C          2.5607502717        0.0233577378       -0.2840724008
 C          1.9310194242       -1.0934923460        0.5424470152
 C          0.4605666594       -1.2666105322        0.1775580215
 H         -2.3923949264        1.6608585504        0.9880814355
 H         -3.7168122183        0.6780033429        0.3054704807
 H         -2.8425655730        0.1408729370        1.7502208478
 H         -0.2705931809        0.3217169678        1.4473053020
 H          0.2428602865        0.8983429473       -1.5030826460
 H         -0.2062589541        2.0961141380       -0.2844306075
 H          2.2384787739        2.1185134820       -0.6873922106
 H          1.8773386138        1.6306521632        0.9715343661
 H          2.5297240732       -0.2482879939       -1.3414742578
 H          3.6065868839        0.1524781784       -0.0002856421
 H          2.4623759551       -2.0308888801        0.3702237444
 H          2.0139875563       -0.8505140487        1.6041648463
 H          0.3653615483       -1.5613609482       -0.8697748169
 H          0.0128770037       -2.0568730478        0.7846514709
