41
 xtb: 6.7.1 (edcfbbe)
C            3.17301049363321        1.49429861411402        2.56502542087355
C            1.77137264413714        1.02154707714854        2.26862418944967
O            1.52453358098513        0.91277983137303        0.82175692990995
P            2.18720500812137       -0.24904124208241       -0.06415179476022
S            2.47478131671720       -1.96927257209991        0.80214421715132
O            3.47916724246506        0.52088240796683       -0.63895172309724
C            4.50677766405575       -0.19830003616694       -1.41128405519958
C            5.77117648261974       -0.28140171191823       -0.59515533711970
S            0.95153466916621       -0.27186065723548       -1.78615507203596
C           -0.25913612594582       -1.57155922646749       -1.32615394252877
S           -1.38488504280390       -1.19811699423764        0.07194067803927
P           -2.62892638298188        0.29712030132971       -0.79153499345834
S           -3.05529771725414        0.05619793859372       -2.67243378804794
O           -1.96110296989315        1.72793870322611       -0.52775737682596
C           -1.60408227874095        2.19891872201602        0.82598067890663
C           -2.62139610533239        3.20297283629306        1.30556853100844
O           -3.83591006566654        0.30608030039793        0.27360428429731
C           -4.82927611109255       -0.77797716161476        0.30771131838261
C           -5.92853384639144       -0.34337336922636        1.24102441642102
H            3.38002180259094        2.44557634059942        2.06647786726566
H            3.26996065097057        1.64192811085308        3.64572128873429
H            3.92117126316986        0.75828825927425        2.25456824249068
H            1.02211471983925        1.74429236059054        2.59857462439647
H            1.55695544247909        0.05060173977119        2.72546677141017
H            4.13334334297055       -1.19017413587925       -1.68400753995061
H            4.64299655012569        0.38994036689814       -2.32179603774257
H            6.11476493524995        0.71637822481769       -0.30772536246928
H            5.61611993822981       -0.88042845401962        0.30650297862456
H            6.55318809567545       -0.75569204794609       -1.19697238771782
H            0.27707566054326       -2.48051540207738       -1.03840435550442
H           -0.84762331434579       -1.76121015475325       -2.22883391168974
H           -1.52023605214979        1.34089337896974        1.50028144186340
H           -0.61658317249019        2.64885932232334        0.70636730338275
H           -2.29786713717177        3.59169554694447        2.27681699453144
H           -2.69760825710268        4.04269059097758        0.60898631024770
H           -3.60709081215951        2.74659699637068        1.42648259476287
H           -5.19810069360092       -0.93723603127023       -0.71030664973298
H           -4.33236659015663       -1.68728006154570        0.66012730424395
H           -6.68023934207945       -1.13678550511446        1.29325077139947
H           -5.54112287495432       -0.16767482761707        2.24852057338305
H           -6.41146668032879        0.56790241762075        0.87765581443801
