 xtb: 6.7.1 (edcfbbe)
          04092505213D

 41 40  0     0  0            999 V2000
    2.6973   -0.8763   -2.7706 C   0  0  0  0  0  0  0  0  0  0  0  0
    1.6334    0.0173   -2.1713 C   0  0  0  0  0  0  0  0  0  0  0  0
    1.0964   -0.5350   -0.9537 O   0  0  0  0  0  0  0  0  0  0  0  0
    1.9704   -0.6085    0.3768 P   0  0  0  0  0  0  0  0  0  0  0  0
    3.3203    0.7952    0.6273 S   0  0  0  0  0  0  0  0  0  0  0  0
    2.5493   -2.0841    0.2764 O   0  0  0  0  0  0  0  0  0  0  0  0
    3.6574   -2.5360    1.0758 C   0  0  0  0  0  0  0  0  0  0  0  0
    3.2909   -2.6538    2.5410 C   0  0  0  0  0  0  0  0  0  0  0  0
    0.4378   -0.8058    1.8067 S   0  0  0  0  0  0  0  0  0  0  0  0
   -0.0003    0.9493    2.0076 C   0  0  0  0  0  0  0  0  0  0  0  0
   -0.0908    1.8804    0.4508 S   0  0  0  0  0  0  0  0  0  0  0  0
   -1.8135    1.0275   -0.4287 P   0  0  0  0  0  0  0  0  0  0  0  0
   -1.9058    1.2994   -2.3663 S   0  0  0  0  0  0  0  0  0  0  0  0
   -2.8717    1.7430    0.5159 O   0  0  0  0  0  0  0  0  0  0  0  0
   -4.2460    1.3196    0.6503 C   0  0  0  0  0  0  0  0  0  0  0  0
   -5.0564    1.6001   -0.5985 C   0  0  0  0  0  0  0  0  0  0  0  0
   -1.9494   -0.4859    0.0382 O   0  0  0  0  0  0  0  0  0  0  0  0
   -1.7956   -1.6329   -0.8126 C   0  0  0  0  0  0  0  0  0  0  0  0
   -3.0683   -2.4543   -0.7590 C   0  0  0  0  0  0  0  0  0  0  0  0
    2.9984   -0.4762   -3.7336 H   0  0  0  0  0  0  0  0  0  0  0  0
    3.5650   -0.9090   -2.1126 H   0  0  0  0  0  0  0  0  0  0  0  0
    2.3116   -1.8840   -2.8995 H   0  0  0  0  0  0  0  0  0  0  0  0
    0.7657    0.1187   -2.8270 H   0  0  0  0  0  0  0  0  0  0  0  0
    2.0350    1.0128   -1.9513 H   0  0  0  0  0  0  0  0  0  0  0  0
    3.9137   -3.5041    0.6436 H   0  0  0  0  0  0  0  0  0  0  0  0
    4.4876   -1.8349    0.9429 H   0  0  0  0  0  0  0  0  0  0  0  0
    3.1004   -1.6653    2.9569 H   0  0  0  0  0  0  0  0  0  0  0  0
    2.3978   -3.2618    2.6601 H   0  0  0  0  0  0  0  0  0  0  0  0
    4.1142   -3.1100    3.0812 H   0  0  0  0  0  0  0  0  0  0  0  0
    0.7726    1.4472    2.5905 H   0  0  0  0  0  0  0  0  0  0  0  0
   -0.9600    0.9766    2.5175 H   0  0  0  0  0  0  0  0  0  0  0  0
   -4.2588    0.2551    0.8961 H   0  0  0  0  0  0  0  0  0  0  0  0
   -4.6098    1.9015    1.4989 H   0  0  0  0  0  0  0  0  0  0  0  0
   -6.0931    1.3300   -0.4233 H   0  0  0  0  0  0  0  0  0  0  0  0
   -4.9980    2.6546   -0.8567 H   0  0  0  0  0  0  0  0  0  0  0  0
   -4.6736    1.0221   -1.4381 H   0  0  0  0  0  0  0  0  0  0  0  0
   -1.5863   -1.2927   -1.8321 H   0  0  0  0  0  0  0  0  0  0  0  0
   -0.9390   -2.1945   -0.4323 H   0  0  0  0  0  0  0  0  0  0  0  0
   -2.9338   -3.3534   -1.3512 H   0  0  0  0  0  0  0  0  0  0  0  0
   -3.2898   -2.7309    0.2680 H   0  0  0  0  0  0  0  0  0  0  0  0
   -3.9006   -1.8837   -1.1643 H   0  0  0  0  0  0  0  0  0  0  0  0
  1  2  1  0  0  0  0
  2  3  1  0  0  0  0
  3  4  1  0  0  0  0
  4  5  2  0  0  0  0
  4  6  2  0  0  0  0
  6  7  1  0  0  0  0
  7  8  1  0  0  0  0
  4  9  1  0  0  0  0
  9 10  1  0  0  0  0
 10 11  1  0  0  0  0
 11 12  1  0  0  0  0
 12 13  2  0  0  0  0
 12 14  2  0  0  0  0
 14 15  1  0  0  0  0
 15 16  1  0  0  0  0
 12 17  2  0  0  0  0
 17 18  1  0  0  0  0
 18 19  1  0  0  0  0
  1 20  1  0  0  0  0
  1 21  1  0  0  0  0
  1 22  1  0  0  0  0
  2 23  1  0  0  0  0
  2 24  1  0  0  0  0
  7 25  1  0  0  0  0
  7 26  1  0  0  0  0
  8 27  1  0  0  0  0
  8 28  1  0  0  0  0
  8 29  1  0  0  0  0
 10 30  1  0  0  0  0
 10 31  1  0  0  0  0
 15 32  1  0  0  0  0
 15 33  1  0  0  0  0
 16 34  1  0  0  0  0
 16 35  1  0  0  0  0
 16 36  1  0  0  0  0
 18 37  1  0  0  0  0
 18 38  1  0  0  0  0
 19 39  1  0  0  0  0
 19 40  1  0  0  0  0
 19 41  1  0  0  0  0
M  END
