 xtb: 6.7.1 (edcfbbe)
          04092505213D

 41 40  0     0  0            999 V2000
    2.8739   -1.5182   -2.9106 C   0  0  0  0  0  0  0  0  0  0  0  0
    3.2231   -0.4124   -1.9348 C   0  0  0  0  0  0  0  0  0  0  0  0
    2.8653   -0.8304   -0.6029 O   0  0  0  0  0  0  0  0  0  0  0  0
    2.1096    0.0447    0.4775 P   0  0  0  0  0  0  0  0  0  0  0  0
    1.4705    1.7904   -0.1887 S   0  0  0  0  0  0  0  0  0  0  0  0
    3.2517    0.1741    1.5758 O   0  0  0  0  0  0  0  0  0  0  0  0
    3.0389    0.3400    2.9895 C   0  0  0  0  0  0  0  0  0  0  0  0
    2.0605    1.4510    3.3107 C   0  0  0  0  0  0  0  0  0  0  0  0
    0.8317   -1.3802    1.3754 S   0  0  0  0  0  0  0  0  0  0  0  0
   -0.0736   -2.0314   -0.0690 C   0  0  0  0  0  0  0  0  0  0  0  0
   -0.3389   -0.8493   -1.4190 S   0  0  0  0  0  0  0  0  0  0  0  0
   -1.8785    0.3192   -0.5918 P   0  0  0  0  0  0  0  0  0  0  0  0
   -2.4906    1.8633   -1.6288 S   0  0  0  0  0  0  0  0  0  0  0  0
   -1.2613    0.6098    0.8373 O   0  0  0  0  0  0  0  0  0  0  0  0
   -1.9704    1.4020    1.8150 C   0  0  0  0  0  0  0  0  0  0  0  0
   -2.5772    0.5025    2.8721 C   0  0  0  0  0  0  0  0  0  0  0  0
   -3.0438   -0.7105   -0.2190 O   0  0  0  0  0  0  0  0  0  0  0  0
   -4.1147   -1.0032   -1.1304 C   0  0  0  0  0  0  0  0  0  0  0  0
   -3.6377   -1.8039   -2.3253 C   0  0  0  0  0  0  0  0  0  0  0  0
    3.3580   -2.4424   -2.6092 H   0  0  0  0  0  0  0  0  0  0  0  0
    1.7973   -1.6693   -2.9409 H   0  0  0  0  0  0  0  0  0  0  0  0
    3.2204   -1.2364   -3.8994 H   0  0  0  0  0  0  0  0  0  0  0  0
    2.6939    0.5175   -2.1716 H   0  0  0  0  0  0  0  0  0  0  0  0
    4.2978   -0.2181   -1.9221 H   0  0  0  0  0  0  0  0  0  0  0  0
    2.6865   -0.6140    3.3924 H   0  0  0  0  0  0  0  0  0  0  0  0
    4.0353    0.5605    3.3767 H   0  0  0  0  0  0  0  0  0  0  0  0
    1.9756    1.5615    4.3869 H   0  0  0  0  0  0  0  0  0  0  0  0
    2.3952    2.3897    2.8745 H   0  0  0  0  0  0  0  0  0  0  0  0
    1.0810    1.2098    2.8976 H   0  0  0  0  0  0  0  0  0  0  0  0
   -1.0323   -2.3829    0.3070 H   0  0  0  0  0  0  0  0  0  0  0  0
    0.5054   -2.8435   -0.5031 H   0  0  0  0  0  0  0  0  0  0  0  0
   -1.2177    2.0732    2.2359 H   0  0  0  0  0  0  0  0  0  0  0  0
   -2.7306    2.0006    1.3022 H   0  0  0  0  0  0  0  0  0  0  0  0
   -1.8027   -0.1144    3.3206 H   0  0  0  0  0  0  0  0  0  0  0  0
   -3.0386    1.1176    3.6381 H   0  0  0  0  0  0  0  0  0  0  0  0
   -3.3295   -0.1440    2.4280 H   0  0  0  0  0  0  0  0  0  0  0  0
   -4.8313   -1.5625   -0.5276 H   0  0  0  0  0  0  0  0  0  0  0  0
   -4.5569   -0.0567   -1.4569 H   0  0  0  0  0  0  0  0  0  0  0  0
   -2.9373   -1.2088   -2.9113 H   0  0  0  0  0  0  0  0  0  0  0  0
   -3.1422   -2.7161   -2.0035 H   0  0  0  0  0  0  0  0  0  0  0  0
   -4.4886   -2.0577   -2.9491 H   0  0  0  0  0  0  0  0  0  0  0  0
  1  2  1  0  0  0  0
  2  3  1  0  0  0  0
  3  4  2  0  0  0  0
  4  5  2  0  0  0  0
  4  6  2  0  0  0  0
  6  7  1  0  0  0  0
  7  8  1  0  0  0  0
  4  9  1  0  0  0  0
  9 10  1  0  0  0  0
 10 11  1  0  0  0  0
 11 12  1  0  0  0  0
 12 13  2  0  0  0  0
 12 14  2  0  0  0  0
 14 15  1  0  0  0  0
 15 16  1  0  0  0  0
 12 17  2  0  0  0  0
 17 18  1  0  0  0  0
 18 19  1  0  0  0  0
  1 20  1  0  0  0  0
  1 21  1  0  0  0  0
  1 22  1  0  0  0  0
  2 23  1  0  0  0  0
  2 24  1  0  0  0  0
  7 25  1  0  0  0  0
  7 26  1  0  0  0  0
  8 27  1  0  0  0  0
  8 28  1  0  0  0  0
  8 29  1  0  0  0  0
 10 30  1  0  0  0  0
 10 31  1  0  0  0  0
 15 32  1  0  0  0  0
 15 33  1  0  0  0  0
 16 34  1  0  0  0  0
 16 35  1  0  0  0  0
 16 36  1  0  0  0  0
 18 37  1  0  0  0  0
 18 38  1  0  0  0  0
 19 39  1  0  0  0  0
 19 40  1  0  0  0  0
 19 41  1  0  0  0  0
M  END
