 xtb: 6.7.1 (edcfbbe)
          04092507313D

 38 37  0     0  0            999 V2000
    5.3498   -1.6379   -0.2987 C   0  0  0  0  0  0  0  0  0  0  0  0
    4.1656   -2.3075    0.3802 C   0  0  0  0  0  0  0  0  0  0  0  0
    2.9692   -2.1642   -0.4128 O   0  0  0  0  0  0  0  0  0  0  0  0
    2.2500   -1.0746   -0.2750 C   0  0  0  0  0  0  0  0  0  0  0  0
    2.5162   -0.1600    0.4804 O   0  0  0  0  0  0  0  0  0  0  0  0
    1.0130   -1.1085   -1.1399 C   0  0  0  0  0  0  0  0  0  0  0  0
    0.4240    0.2890   -1.3199 C   0  0  0  0  0  0  0  0  0  0  0  0
    0.8466    0.7954   -2.1891 H   0  0  0  0  0  0  0  0  0  0  0  0
    0.6110    1.1749   -0.0999 C   0  0  0  0  0  0  0  0  0  0  0  0
   -0.0553    1.0313    0.9107 O   0  0  0  0  0  0  0  0  0  0  0  0
    1.4163    2.1739   -0.3321 O   0  0  0  0  0  0  0  0  0  0  0  0
    1.6944    3.0885    0.7487 C   0  0  0  0  0  0  0  0  0  0  0  0
    2.3302    4.3319    0.1597 C   0  0  0  0  0  0  0  0  0  0  0  0
   -1.3736    0.2262   -1.5950 S   0  0  0  0  0  0  0  0  0  0  0  0
   -2.1411   -0.2963    0.3328 P   0  0  0  0  0  0  0  0  0  0  0  0
   -1.2969   -1.6928    1.4245 S   0  0  0  0  0  0  0  0  0  0  0  0
   -2.6200    1.0088    1.0935 O   0  0  0  0  0  0  0  0  0  0  0  0
   -3.5702    1.9235    0.5141 C   0  0  0  0  0  0  0  0  0  0  0  0
   -3.5863   -0.7947   -0.1807 O   0  0  0  0  0  0  0  0  0  0  0  0
   -3.7582   -2.0446   -0.8518 C   0  0  0  0  0  0  0  0  0  0  0  0
    5.4844   -2.0415   -1.2982 H   0  0  0  0  0  0  0  0  0  0  0  0
    5.1845   -0.5651   -0.3667 H   0  0  0  0  0  0  0  0  0  0  0  0
    6.2458   -1.8199    0.2853 H   0  0  0  0  0  0  0  0  0  0  0  0
    3.9837   -1.8732    1.3674 H   0  0  0  0  0  0  0  0  0  0  0  0
    4.3073   -3.3851    0.4605 H   0  0  0  0  0  0  0  0  0  0  0  0
    0.3063   -1.7531   -0.6020 H   0  0  0  0  0  0  0  0  0  0  0  0
    1.2298   -1.5752   -2.0992 H   0  0  0  0  0  0  0  0  0  0  0  0
    0.7556    3.3059    1.2679 H   0  0  0  0  0  0  0  0  0  0  0  0
    2.3648    2.5728    1.4429 H   0  0  0  0  0  0  0  0  0  0  0  0
    2.5675    5.0235    0.9609 H   0  0  0  0  0  0  0  0  0  0  0  0
    3.2414    4.0659   -0.3671 H   0  0  0  0  0  0  0  0  0  0  0  0
    1.6468    4.8092   -0.5363 H   0  0  0  0  0  0  0  0  0  0  0  0
   -3.2893    2.1620   -0.5124 H   0  0  0  0  0  0  0  0  0  0  0  0
   -3.5284    2.8100    1.1421 H   0  0  0  0  0  0  0  0  0  0  0  0
   -4.5640    1.4798    0.5324 H   0  0  0  0  0  0  0  0  0  0  0  0
   -3.2287   -2.8328   -0.3135 H   0  0  0  0  0  0  0  0  0  0  0  0
   -3.3844   -1.9716   -1.8727 H   0  0  0  0  0  0  0  0  0  0  0  0
   -4.8283   -2.2350   -0.8476 H   0  0  0  0  0  0  0  0  0  0  0  0
  1  2  1  0  0  0  0
  2  3  1  0  0  0  0
  3  4  4  0  0  0  0
  4  5  2  0  0  0  0
  4  6  1  0  0  0  0
  6  7  1  0  0  0  0
  7  8  1  0  0  0  0
  7  9  1  0  0  0  0
  9 10  2  0  0  0  0
  9 11  4  0  0  0  0
 11 12  1  0  0  0  0
 12 13  1  0  0  0  0
  7 14  1  0  0  0  0
 14 15  1  0  0  0  0
 15 16  2  0  0  0  0
 15 17  2  0  0  0  0
 17 18  1  0  0  0  0
 15 19  1  0  0  0  0
 19 20  1  0  0  0  0
  1 21  1  0  0  0  0
  1 22  1  0  0  0  0
  1 23  1  0  0  0  0
  2 24  1  0  0  0  0
  2 25  1  0  0  0  0
  6 26  1  0  0  0  0
  6 27  1  0  0  0  0
 12 28  1  0  0  0  0
 12 29  1  0  0  0  0
 13 30  1  0  0  0  0
 13 31  1  0  0  0  0
 13 32  1  0  0  0  0
 18 33  1  0  0  0  0
 18 34  1  0  0  0  0
 18 35  1  0  0  0  0
 20 36  1  0  0  0  0
 20 37  1  0  0  0  0
 20 38  1  0  0  0  0
M  END
