 xtb: 6.7.1 (edcfbbe)
          04092505213D

 41 40  0     0  0            999 V2000
    3.3988   -1.3022   -2.7551 C   0  0  0  0  0  0  0  0  0  0  0  0
    2.0026   -1.0560   -2.2223 C   0  0  0  0  0  0  0  0  0  0  0  0
    1.9649    0.1275   -1.3846 O   0  0  0  0  0  0  0  0  0  0  0  0
    2.1076    0.0872    0.1797 P   0  0  0  0  0  0  0  0  0  0  0  0
    2.1417    1.8472    1.0267 S   0  0  0  0  0  0  0  0  0  0  0  0
    3.4510   -0.7493    0.3584 O   0  0  0  0  0  0  0  0  0  0  0  0
    4.0021   -0.9937    1.6672 C   0  0  0  0  0  0  0  0  0  0  0  0
    5.4165   -1.5072    1.4878 C   0  0  0  0  0  0  0  0  0  0  0  0
    0.6455   -1.2946    0.9230 S   0  0  0  0  0  0  0  0  0  0  0  0
   -0.2702   -0.2113    2.0605 C   0  0  0  0  0  0  0  0  0  0  0  0
   -2.0675   -0.3131    1.8590 S   0  0  0  0  0  0  0  0  0  0  0  0
   -2.2133    0.2256   -0.1677 P   0  0  0  0  0  0  0  0  0  0  0  0
   -0.9376    1.5322   -0.9094 S   0  0  0  0  0  0  0  0  0  0  0  0
   -3.7407    0.6214   -0.3546 O   0  0  0  0  0  0  0  0  0  0  0  0
   -4.2218    1.9651   -0.1825 C   0  0  0  0  0  0  0  0  0  0  0  0
   -4.1129    2.4320    1.2547 C   0  0  0  0  0  0  0  0  0  0  0  0
   -2.1629   -1.2191   -0.8123 O   0  0  0  0  0  0  0  0  0  0  0  0
   -1.9260   -1.4390   -2.2164 C   0  0  0  0  0  0  0  0  0  0  0  0
   -3.1636   -1.1614   -3.0443 C   0  0  0  0  0  0  0  0  0  0  0  0
    3.3712   -2.1461   -3.4373 H   0  0  0  0  0  0  0  0  0  0  0  0
    3.7529   -0.4222   -3.2850 H   0  0  0  0  0  0  0  0  0  0  0  0
    4.0825   -1.5190   -1.9394 H   0  0  0  0  0  0  0  0  0  0  0  0
    1.6376   -1.9100   -1.6442 H   0  0  0  0  0  0  0  0  0  0  0  0
    1.3059   -0.8319   -3.0329 H   0  0  0  0  0  0  0  0  0  0  0  0
    3.9827   -0.0563    2.2326 H   0  0  0  0  0  0  0  0  0  0  0  0
    3.3702   -1.7307    2.1709 H   0  0  0  0  0  0  0  0  0  0  0  0
    5.8502   -1.7009    2.4633 H   0  0  0  0  0  0  0  0  0  0  0  0
    5.4090   -2.4263    0.9091 H   0  0  0  0  0  0  0  0  0  0  0  0
    6.0187   -0.7668    0.9689 H   0  0  0  0  0  0  0  0  0  0  0  0
    0.0718    0.8156    1.8997 H   0  0  0  0  0  0  0  0  0  0  0  0
   -0.0731   -0.5321    3.0804 H   0  0  0  0  0  0  0  0  0  0  0  0
   -3.6498    2.6239   -0.8441 H   0  0  0  0  0  0  0  0  0  0  0  0
   -5.2602    1.9151   -0.5128 H   0  0  0  0  0  0  0  0  0  0  0  0
   -3.0647    2.5359    1.5338 H   0  0  0  0  0  0  0  0  0  0  0  0
   -4.5995    3.3966    1.3578 H   0  0  0  0  0  0  0  0  0  0  0  0
   -4.5834    1.7144    1.9221 H   0  0  0  0  0  0  0  0  0  0  0  0
   -1.0969   -0.7958   -2.5312 H   0  0  0  0  0  0  0  0  0  0  0  0
   -1.6273   -2.4869   -2.2722 H   0  0  0  0  0  0  0  0  0  0  0  0
   -4.0061   -1.7262   -2.6550 H   0  0  0  0  0  0  0  0  0  0  0  0
   -3.4058   -0.1007   -3.0100 H   0  0  0  0  0  0  0  0  0  0  0  0
   -2.9783   -1.4500   -4.0743 H   0  0  0  0  0  0  0  0  0  0  0  0
  1  2  1  0  0  0  0
  2  3  1  0  0  0  0
  3  4  2  0  0  0  0
  4  5  2  0  0  0  0
  4  6  2  0  0  0  0
  6  7  1  0  0  0  0
  7  8  1  0  0  0  0
  4  9  1  0  0  0  0
  9 10  1  0  0  0  0
 10 11  1  0  0  0  0
 11 12  1  0  0  0  0
 12 13  2  0  0  0  0
 12 14  2  0  0  0  0
 14 15  1  0  0  0  0
 15 16  1  0  0  0  0
 12 17  2  0  0  0  0
 17 18  1  0  0  0  0
 18 19  1  0  0  0  0
  1 20  1  0  0  0  0
  1 21  1  0  0  0  0
  1 22  1  0  0  0  0
  2 23  1  0  0  0  0
  2 24  1  0  0  0  0
  7 25  1  0  0  0  0
  7 26  1  0  0  0  0
  8 27  1  0  0  0  0
  8 28  1  0  0  0  0
  8 29  1  0  0  0  0
 10 30  1  0  0  0  0
 10 31  1  0  0  0  0
 15 32  1  0  0  0  0
 15 33  1  0  0  0  0
 16 34  1  0  0  0  0
 16 35  1  0  0  0  0
 16 36  1  0  0  0  0
 18 37  1  0  0  0  0
 18 38  1  0  0  0  0
 19 39  1  0  0  0  0
 19 40  1  0  0  0  0
 19 41  1  0  0  0  0
M  END
