  40
 
 C          1.2011029444        2.7511642889       -2.5507375633
 C          1.7527242604        1.9614939899       -1.3813081930
 O          1.1399260788        0.6532016927       -1.3983612704
 P          1.3312541299       -0.3177453471       -0.1720285465
 S          1.1971574192        0.3696850162        1.6559500976
 O          2.7594861133       -0.9380969737       -0.4904067730
 C          3.5925287678       -1.5886382968        0.4861405805
 C          5.0343873938       -1.1831557186        0.2462482208
 O          0.4158671082       -1.5911082065       -0.6024023444
 C         -0.9202968191       -1.3655976719       -0.5109954267
 C         -1.8436534818       -2.3668926141       -0.7443954383
 C         -3.1796112446       -1.9888848733       -0.6107527779
 N         -3.5068762066       -0.7475558760       -0.2548758289
 C         -2.5470249790        0.1340477241       -0.0419041274
 N         -1.2468278773       -0.1325111326       -0.1812826199
 C         -2.9346998282        1.5053070412        0.4211919217
 C         -2.1876714128        2.5794579506       -0.3648826925
 C         -2.6112359095        1.6105281329        1.9160676379
 C         -4.2899929685       -2.9524458624       -0.8382056855
 H          1.6516241433        3.7381791956       -2.5580132708
 H          1.4306430165        2.2416090025       -3.4819102528
 H          0.1232279326        2.8483567386       -2.4602215820
 H          1.5246765003        2.4399294916       -0.4229961474
 H          2.8354557349        1.8326358717       -1.4624072051
 H          3.2596861210       -1.2906180057        1.4868169133
 H          3.4575178921       -2.6663687758        0.3669755705
 H          5.6732498770       -1.7105222411        0.9469909171
 H          5.3262771926       -1.4350541065       -0.7691508248
 H          5.1511121963       -0.1129505114        0.3929960256
 H         -1.5361890266       -3.3615451179       -1.0136979713
 H         -4.0128838993        1.6079147444        0.2767056874
 H         -2.4635403560        3.5644009104        0.0000990172
 H         -2.4278314956        2.5142465400       -1.4235550464
 H         -1.1173556469        2.4412294420       -0.2364840529
 H         -2.8844652235        2.5951733276        2.2835493169
 H         -1.5461323561        1.4567893939        2.0789381689
 H         -3.1592674609        0.8598783340        2.4800184787
 H         -4.3612274129       -3.6247316487        0.0149151127
 H         -5.2264011679       -2.4142277671       -0.9375928213
 H         -4.0986501204       -3.5501960287       -1.7246590440
          40
        -60.40778610
 C          3.1513667330        2.4065681871       -1.1486776308
 C          1.6436191840        2.2573201083       -1.1813045030
 O          1.2444012731        0.8798274548       -1.3045647726
 P          1.4678160379       -0.1318719062       -0.1133726331
 S          1.4413986069        0.5197635477        1.7315501675
 O          2.8410232684       -0.8089015961       -0.5354667194
 C          3.6493497533       -1.5526882435        0.3883609643
 C          3.0135771147       -2.8801115040        0.7512151265
 O          0.4628979797       -1.3470106654       -0.5125267194
 C         -0.8569586650       -1.0733251659       -0.3622866411
 C         -1.8140284893       -2.0584764464       -0.5258843575
 C         -3.1328322957       -1.6502787098       -0.3347021524
 N         -3.4176646122       -0.3896752675       -0.0101867486
 C         -2.4303859968        0.4767549071        0.1223084652
 N         -1.1413423042        0.1754083260       -0.0500714350
 C         -2.7733027077        1.8912796876        0.4816959348
 C         -2.3168942772        2.8270916089       -0.6391909950
 C         -2.1063861877        2.2620445681        1.8076734795
 C         -4.2714259802       -2.5979917304       -0.4762548299
 H          3.4103079973        3.4606271645       -1.1582614529
 H          3.5451438663        1.9522071410       -0.2404762600
 H          3.5961538119        1.9138745695       -2.0091197966
 H          1.2084418133        2.7393296977       -2.0582863641
 H          1.2003404902        2.6673199936       -0.2681402478
 H          4.5974733895       -1.6886339119       -0.1336063592
 H          3.7997021916       -0.9446835416        1.2868046179
 H          3.6905269478       -3.4472242672        1.3822873336
 H          2.0849471198       -2.7051024032        1.2937923499
 H          2.7913513921       -3.4482375730       -0.1483387911
 H         -1.5410865784       -3.0663356015       -0.7832419617
 H         -3.8594038598        1.9460212690        0.5885448217
 H         -2.8365317824        2.5940397327       -1.5654418936
 H         -1.2483613759        2.7102886339       -0.7996733001
 H         -2.5255559295        3.8576427857       -0.3675752044
 H         -1.0299545103        2.1212600926        1.7411411466
 H         -2.4807524331        1.6338170965        2.6123580020
 H         -2.3129802402        3.3005389518        2.0490159088
 H         -4.2128367260       -3.3576474135        0.3002254876
 H         -5.2081282131       -2.0595354303       -0.3828385491
 H         -4.2230201048       -3.0984317617       -1.4399039872
