 xtb: 6.7.1 (edcfbbe)
          04092505213D

 41 40  0     0  0            999 V2000
    5.1301   -0.7070   -1.7076 C   0  0  0  0  0  0  0  0  0  0  0  0
    3.6965   -0.8915   -2.1649 C   0  0  0  0  0  0  0  0  0  0  0  0
    2.8819   -1.4046   -1.0946 O   0  0  0  0  0  0  0  0  0  0  0  0
    1.8369   -0.5678   -0.2392 P   0  0  0  0  0  0  0  0  0  0  0  0
    1.2664    1.0968   -1.1257 S   0  0  0  0  0  0  0  0  0  0  0  0
    2.5050   -0.3742    1.1928 O   0  0  0  0  0  0  0  0  0  0  0  0
    2.7304    0.8896    1.8424 C   0  0  0  0  0  0  0  0  0  0  0  0
    4.0486    1.5007    1.4137 C   0  0  0  0  0  0  0  0  0  0  0  0
    0.6000   -2.2359    0.0735 S   0  0  0  0  0  0  0  0  0  0  0  0
   -0.4603   -1.6886    1.4662 C   0  0  0  0  0  0  0  0  0  0  0  0
   -0.5905    0.1051    1.6517 S   0  0  0  0  0  0  0  0  0  0  0  0
   -1.9996    0.5353    0.1295 P   0  0  0  0  0  0  0  0  0  0  0  0
   -2.2660    2.4190   -0.3209 S   0  0  0  0  0  0  0  0  0  0  0  0
   -3.3195   -0.2303    0.5987 O   0  0  0  0  0  0  0  0  0  0  0  0
   -4.3324    0.4073    1.3920 C   0  0  0  0  0  0  0  0  0  0  0  0
   -3.8661    0.6648    2.8110 C   0  0  0  0  0  0  0  0  0  0  0  0
   -1.4961   -0.4492   -1.0050 O   0  0  0  0  0  0  0  0  0  0  0  0
   -1.7951   -0.2268   -2.3964 C   0  0  0  0  0  0  0  0  0  0  0  0
   -3.2712   -0.3894   -2.6858 C   0  0  0  0  0  0  0  0  0  0  0  0
    5.7387   -0.4166   -2.5582 H   0  0  0  0  0  0  0  0  0  0  0  0
    5.1902    0.0665   -0.9466 H   0  0  0  0  0  0  0  0  0  0  0  0
    5.5085   -1.6378   -1.2943 H   0  0  0  0  0  0  0  0  0  0  0  0
    3.6286   -1.6416   -2.9556 H   0  0  0  0  0  0  0  0  0  0  0  0
    3.2645    0.0516   -2.5183 H   0  0  0  0  0  0  0  0  0  0  0  0
    1.8995    1.5639    1.6118 H   0  0  0  0  0  0  0  0  0  0  0  0
    2.7209    0.6510    2.9067 H   0  0  0  0  0  0  0  0  0  0  0  0
    4.8596    0.7952    1.5746 H   0  0  0  0  0  0  0  0  0  0  0  0
    4.0051    1.7703    0.3594 H   0  0  0  0  0  0  0  0  0  0  0  0
    4.2311    2.3981    1.9962 H   0  0  0  0  0  0  0  0  0  0  0  0
   -0.0249   -2.0515    2.3945 H   0  0  0  0  0  0  0  0  0  0  0  0
   -1.4477   -2.1131    1.2957 H   0  0  0  0  0  0  0  0  0  0  0  0
   -4.6097    1.3478    0.9053 H   0  0  0  0  0  0  0  0  0  0  0  0
   -5.1703   -0.2903    1.3612 H   0  0  0  0  0  0  0  0  0  0  0  0
   -4.6876    1.0764    3.3884 H   0  0  0  0  0  0  0  0  0  0  0  0
   -3.5253   -0.2569    3.2752 H   0  0  0  0  0  0  0  0  0  0  0  0
   -3.0446    1.3811    2.8058 H   0  0  0  0  0  0  0  0  0  0  0  0
   -1.4463    0.7752   -2.6682 H   0  0  0  0  0  0  0  0  0  0  0  0
   -1.1910   -0.9755   -2.9124 H   0  0  0  0  0  0  0  0  0  0  0  0
   -3.4375   -0.3047   -3.7550 H   0  0  0  0  0  0  0  0  0  0  0  0
   -3.6163   -1.3598   -2.3387 H   0  0  0  0  0  0  0  0  0  0  0  0
   -3.8339    0.3923   -2.1765 H   0  0  0  0  0  0  0  0  0  0  0  0
  1  2  1  0  0  0  0
  2  3  1  0  0  0  0
  3  4  2  0  0  0  0
  4  5  2  0  0  0  0
  4  6  2  0  0  0  0
  6  7  1  0  0  0  0
  7  8  1  0  0  0  0
  4  9  1  0  0  0  0
  9 10  1  0  0  0  0
 10 11  1  0  0  0  0
 11 12  1  0  0  0  0
 12 13  2  0  0  0  0
 12 14  2  0  0  0  0
 14 15  1  0  0  0  0
 15 16  1  0  0  0  0
 12 17  2  0  0  0  0
 17 18  1  0  0  0  0
 18 19  1  0  0  0  0
  1 20  1  0  0  0  0
  1 21  1  0  0  0  0
  1 22  1  0  0  0  0
  2 23  1  0  0  0  0
  2 24  1  0  0  0  0
  7 25  1  0  0  0  0
  7 26  1  0  0  0  0
  8 27  1  0  0  0  0
  8 28  1  0  0  0  0
  8 29  1  0  0  0  0
 10 30  1  0  0  0  0
 10 31  1  0  0  0  0
 15 32  1  0  0  0  0
 15 33  1  0  0  0  0
 16 34  1  0  0  0  0
 16 35  1  0  0  0  0
 16 36  1  0  0  0  0
 18 37  1  0  0  0  0
 18 38  1  0  0  0  0
 19 39  1  0  0  0  0
 19 40  1  0  0  0  0
 19 41  1  0  0  0  0
M  END
