 xtb: 6.7.1 (edcfbbe)
          04032519453D

 19 19  0     0  0            999 V2000
   -2.5877    0.5865    0.0000 C   0  0  0  0  0  0  0  0  0  0  0  0
   -1.2255   -0.0452    0.0007 C   0  0  0  0  0  0  0  0  0  0  0  0
   -1.1493   -1.4351    0.0009 C   0  0  0  0  0  0  0  0  0  0  0  0
    0.0707   -2.0791    0.0005 C   0  0  0  0  0  0  0  0  0  0  0  0
    1.2385   -1.3380    0.0002 C   0  0  0  0  0  0  0  0  0  0  0  0
    1.1775    0.0483    0.0000 C   0  0  0  0  0  0  0  0  0  0  0  0
   -0.0562    0.7123    0.0000 C   0  0  0  0  0  0  0  0  0  0  0  0
   -0.0770    2.2146   -0.0009 C   0  0  0  0  0  0  0  0  0  0  0  0
    2.3194    0.8008   -0.0002 O   0  0  0  0  0  0  0  0  0  0  0  0
   -3.1498    0.2513    0.8703 H   0  0  0  0  0  0  0  0  0  0  0  0
   -2.5383    1.6688    0.0159 H   0  0  0  0  0  0  0  0  0  0  0  0
   -3.1367    0.2768   -0.8879 H   0  0  0  0  0  0  0  0  0  0  0  0
   -2.0630   -2.0111    0.0012 H   0  0  0  0  0  0  0  0  0  0  0  0
    0.1192   -3.1576    0.0006 H   0  0  0  0  0  0  0  0  0  0  0  0
    2.1983   -1.8351    0.0001 H   0  0  0  0  0  0  0  0  0  0  0  0
   -0.5900    2.5917   -0.8840 H   0  0  0  0  0  0  0  0  0  0  0  0
   -0.5858    2.5930    0.8841 H   0  0  0  0  0  0  0  0  0  0  0  0
    0.9403    2.5946   -0.0034 H   0  0  0  0  0  0  0  0  0  0  0  0
    3.0956    0.2224   -0.0002 H   0  0  0  0  0  0  0  0  0  0  0  0
  1  2  1  0  0  0  0
  2  3  4  0  0  0  0
  3  4  4  0  0  0  0
  4  5  4  0  0  0  0
  5  6  4  0  0  0  0
  2  7  4  0  0  0  0
  6  7  4  0  0  0  0
  7  8  1  0  0  0  0
  6  9  1  0  0  0  0
  1 10  1  0  0  0  0
  1 11  1  0  0  0  0
  1 12  1  0  0  0  0
  3 13  1  0  0  0  0
  4 14  1  0  0  0  0
  5 15  1  0  0  0  0
  8 16  1  0  0  0  0
  8 17  1  0  0  0  0
  8 18  1  0  0  0  0
  9 19  1  0  0  0  0
M  END
