41
 xtb: 6.7.1 (edcfbbe)
C            1.74925720324960       -0.67505769691816       -2.94709426405296
C            2.38344594303415        0.17819185739929       -1.87959608848372
O            2.97836884287013       -0.70530600478456       -0.86103801017807
P            2.59123032600551       -0.48614725606483        0.68996594370822
S            2.89760681008820        1.28690068429960        1.43443551510954
O            3.38527929697435       -1.70990065236555        1.36045003573103
C            4.76521129578934       -1.55966551173096        1.85735362974129
C            5.76405110760710       -1.42571236074356        0.73530232462444
S            0.58786087206900       -1.18529470813093        0.74065234495266
C           -0.24957244173232        0.07295583384217        1.80351209183338
S           -2.05226043423672       -0.00211150665562        1.52837088505839
P           -2.19257330934365        0.92817778775701       -0.39166436596567
S           -0.99897987731670        2.43398809935472       -0.67433102059031
O           -3.77996668166068        1.17623802292528       -0.46094844936664
C           -4.42961709963510        2.22035612320645        0.34797518072468
C           -5.75293350261003        2.52905683708399       -0.30104193472533
O           -1.99843572108807       -0.19137582958775       -1.51675264602578
C           -2.82030596755846       -1.41845374098761       -1.55286643095134
C           -3.70458266852257       -1.38298761447364       -2.77221436541555
H            1.35463037140926       -0.02344587824057       -3.73345187303366
H            2.48061158215865       -1.35335375086252       -3.39574806090280
H            0.92031282025618       -1.26039283794756       -2.53715720293252
H            1.64792505706641        0.83923591505042       -1.40835663910516
H            3.20369957238970        0.78737468204365       -2.26854838227968
H            4.79045094979364       -0.70151721219197        2.53579003935500
H            4.92405400435500       -2.47364930256560        2.43235693482175
H            6.77029807068437       -1.42609570978124        1.16730493919968
H            5.68804524073107       -2.26489687940447        0.03802382366747
H            5.63255612536242       -0.48973604293012        0.18469000446174
H            0.12767938468969        1.06888888024660        1.55600277365527
H           -0.08792043125342       -0.14812392530038        2.86128575906071
H           -4.55482868195842        1.82916210286663        1.36205146125417
H           -3.77607080720939        3.09805541105152        0.37455473590407
H           -6.27115593062306        3.28462395411432        0.29736257126966
H           -5.61010293554229        2.92412735002556       -1.31062100132359
H           -6.38295726373388        1.63646371424185       -0.35025799744928
H           -2.10138223835536       -2.24045842325861       -1.58861338376705
H           -3.40329278256430       -1.49986131537572       -0.63122145400922
H           -4.26825603873463       -2.32007399898825       -2.82613405288195
H           -4.41605111693851       -0.55415326370251       -2.71851837833751
H           -3.10913038261517       -1.28660215706643       -3.68433274967103
