 xtb: 6.7.1 (edcfbbe)
          04032520033D

 10  9  0     0  0            999 V2000
   -0.6083   -0.0086   -0.4689 C   0  0  0  0  0  0  0  0  0  0  0  0
    0.6083    0.0086    0.4690 C   0  0  0  0  0  0  0  0  0  0  0  0
    1.8279   -0.0189   -0.2352 O   0  0  0  0  0  0  0  0  0  0  0  0
   -1.8279    0.0189    0.2352 O   0  0  0  0  0  0  0  0  0  0  0  0
   -0.6241   -0.9393   -1.0424 H   0  0  0  0  0  0  0  0  0  0  0  0
   -0.5378    0.8319   -1.1715 H   0  0  0  0  0  0  0  0  0  0  0  0
    0.5377   -0.8319    1.1715 H   0  0  0  0  0  0  0  0  0  0  0  0
    0.6240    0.9393    1.0424 H   0  0  0  0  0  0  0  0  0  0  0  0
    1.9028   -0.8532   -0.7189 H   0  0  0  0  0  0  0  0  0  0  0  0
   -1.9029    0.8532    0.7189 H   0  0  0  0  0  0  0  0  0  0  0  0
  1  2  1  0  0  0  0
  2  3  1  0  0  0  0
  1  4  1  0  0  0  0
  1  5  1  0  0  0  0
  1  6  1  0  0  0  0
  2  7  1  0  0  0  0
  2  8  1  0  0  0  0
  3  9  1  0  0  0  0
  4 10  1  0  0  0  0
M  END
