 xtb: 6.7.1 (edcfbbe)
          04092505203D

 41 40  0     0  0            999 V2000
    4.6749   -1.5487   -0.7438 C   0  0  0  0  0  0  0  0  0  0  0  0
    4.6984   -0.1414   -0.1829 C   0  0  0  0  0  0  0  0  0  0  0  0
    3.5054    0.1722    0.5557 O   0  0  0  0  0  0  0  0  0  0  0  0
    2.0828    0.3323   -0.1387 P   0  0  0  0  0  0  0  0  0  0  0  0
    2.1355    1.1809   -1.9090 S   0  0  0  0  0  0  0  0  0  0  0  0
    1.2675    1.0585    1.0088 O   0  0  0  0  0  0  0  0  0  0  0  0
    1.2233    2.4914    1.1459 C   0  0  0  0  0  0  0  0  0  0  0  0
    2.5759    3.0762    1.4907 C   0  0  0  0  0  0  0  0  0  0  0  0
    1.2790   -1.6071   -0.0063 S   0  0  0  0  0  0  0  0  0  0  0  0
    0.1437   -1.6031   -1.4371 C   0  0  0  0  0  0  0  0  0  0  0  0
   -1.5691   -1.9211   -0.9654 S   0  0  0  0  0  0  0  0  0  0  0  0
   -1.9517   -0.0744    0.0173 P   0  0  0  0  0  0  0  0  0  0  0  0
   -1.3772    1.5230   -0.9559 S   0  0  0  0  0  0  0  0  0  0  0  0
   -1.3184   -0.1638    1.4532 O   0  0  0  0  0  0  0  0  0  0  0  0
   -1.5665   -1.2516    2.3816 C   0  0  0  0  0  0  0  0  0  0  0  0
   -2.6750   -0.8900    3.3477 C   0  0  0  0  0  0  0  0  0  0  0  0
   -3.5096   -0.1697    0.3049 O   0  0  0  0  0  0  0  0  0  0  0  0
   -4.4711   -0.0745   -0.7672 C   0  0  0  0  0  0  0  0  0  0  0  0
   -5.8349    0.1553   -0.1490 C   0  0  0  0  0  0  0  0  0  0  0  0
    4.4491   -2.2656    0.0415 H   0  0  0  0  0  0  0  0  0  0  0  0
    3.9154   -1.6258   -1.5205 H   0  0  0  0  0  0  0  0  0  0  0  0
    5.6437   -1.7776   -1.1759 H   0  0  0  0  0  0  0  0  0  0  0  0
    4.8058    0.5900   -0.9904 H   0  0  0  0  0  0  0  0  0  0  0  0
    5.4983   -0.0114    0.5472 H   0  0  0  0  0  0  0  0  0  0  0  0
    0.8378    2.9155    0.2123 H   0  0  0  0  0  0  0  0  0  0  0  0
    0.4926    2.6500    1.9408 H   0  0  0  0  0  0  0  0  0  0  0  0
    3.2593    2.9500    0.6517 H   0  0  0  0  0  0  0  0  0  0  0  0
    2.4638    4.1360    1.6971 H   0  0  0  0  0  0  0  0  0  0  0  0
    2.9895    2.5758    2.3625 H   0  0  0  0  0  0  0  0  0  0  0  0
    0.4299   -2.4173   -2.0977 H   0  0  0  0  0  0  0  0  0  0  0  0
    0.2185   -0.6370   -1.9443 H   0  0  0  0  0  0  0  0  0  0  0  0
   -1.8122   -2.1535    1.8138 H   0  0  0  0  0  0  0  0  0  0  0  0
   -0.6121   -1.3891    2.8939 H   0  0  0  0  0  0  0  0  0  0  0  0
   -3.6093   -0.7471    2.8117 H   0  0  0  0  0  0  0  0  0  0  0  0
   -2.7920   -1.6946    4.0669 H   0  0  0  0  0  0  0  0  0  0  0  0
   -2.4283    0.0283    3.8733 H   0  0  0  0  0  0  0  0  0  0  0  0
   -4.1802    0.7537   -1.4218 H   0  0  0  0  0  0  0  0  0  0  0  0
   -4.4399   -1.0077   -1.3356 H   0  0  0  0  0  0  0  0  0  0  0  0
   -5.8335    1.0761    0.4275 H   0  0  0  0  0  0  0  0  0  0  0  0
   -6.5744    0.2295   -0.9394 H   0  0  0  0  0  0  0  0  0  0  0  0
   -6.0912   -0.6724    0.5058 H   0  0  0  0  0  0  0  0  0  0  0  0
  1  2  1  0  0  0  0
  2  3  1  0  0  0  0
  3  4  2  0  0  0  0
  4  5  2  0  0  0  0
  4  6  2  0  0  0  0
  6  7  1  0  0  0  0
  7  8  1  0  0  0  0
  4  9  1  0  0  0  0
  9 10  1  0  0  0  0
 10 11  1  0  0  0  0
 11 12  1  0  0  0  0
 12 13  2  0  0  0  0
 12 14  2  0  0  0  0
 14 15  1  0  0  0  0
 15 16  1  0  0  0  0
 12 17  2  0  0  0  0
 17 18  1  0  0  0  0
 18 19  1  0  0  0  0
  1 20  1  0  0  0  0
  1 21  1  0  0  0  0
  1 22  1  0  0  0  0
  2 23  1  0  0  0  0
  2 24  1  0  0  0  0
  7 25  1  0  0  0  0
  7 26  1  0  0  0  0
  8 27  1  0  0  0  0
  8 28  1  0  0  0  0
  8 29  1  0  0  0  0
 10 30  1  0  0  0  0
 10 31  1  0  0  0  0
 15 32  1  0  0  0  0
 15 33  1  0  0  0  0
 16 34  1  0  0  0  0
 16 35  1  0  0  0  0
 16 36  1  0  0  0  0
 18 37  1  0  0  0  0
 18 38  1  0  0  0  0
 19 39  1  0  0  0  0
 19 40  1  0  0  0  0
 19 41  1  0  0  0  0
M  END
