 xtb: 6.7.1 (edcfbbe)
          04092509473D

 38 37  0     0  0            999 V2000
    5.0870   -0.4774    0.4179 C   0  0  0  0  0  0  0  0  0  0  0  0
    4.6895   -1.4260   -0.7017 C   0  0  0  0  0  0  0  0  0  0  0  0
    3.2714   -1.6833   -0.6835 O   0  0  0  0  0  0  0  0  0  0  0  0
    2.4669   -0.8052   -1.2457 C   0  0  0  0  0  0  0  0  0  0  0  0
    2.8344    0.2033   -1.8120 O   0  0  0  0  0  0  0  0  0  0  0  0
    1.0169   -1.2211   -1.1124 C   0  0  0  0  0  0  0  0  0  0  0  0
    0.1151   -0.0838   -1.5588 C   0  0  0  0  0  0  0  0  0  0  0  0
    0.2810    0.1549   -2.6139 H   0  0  0  0  0  0  0  0  0  0  0  0
    0.3025    1.2056   -0.7820 C   0  0  0  0  0  0  0  0  0  0  0  0
   -0.1201    2.2708   -1.1799 O   0  0  0  0  0  0  0  0  0  0  0  0
    0.9441    1.0414    0.3514 O   0  0  0  0  0  0  0  0  0  0  0  0
    1.2038    2.2229    1.1375 C   0  0  0  0  0  0  0  0  0  0  0  0
    1.8859    1.8019    2.4226 C   0  0  0  0  0  0  0  0  0  0  0  0
   -1.6568   -0.5247   -1.4963 S   0  0  0  0  0  0  0  0  0  0  0  0
   -2.1001   -0.3126    0.5786 P   0  0  0  0  0  0  0  0  0  0  0  0
   -1.0036   -1.2615    1.8864 S   0  0  0  0  0  0  0  0  0  0  0  0
   -2.1758    1.2353    0.9034 O   0  0  0  0  0  0  0  0  0  0  0  0
   -3.0121    2.1618    0.1807 C   0  0  0  0  0  0  0  0  0  0  0  0
   -3.6480   -0.7052    0.5757 O   0  0  0  0  0  0  0  0  0  0  0  0
   -4.0909   -2.0641    0.4523 C   0  0  0  0  0  0  0  0  0  0  0  0
    4.7747   -0.8806    1.3776 H   0  0  0  0  0  0  0  0  0  0  0  0
    6.1642   -0.3479    0.4153 H   0  0  0  0  0  0  0  0  0  0  0  0
    4.6154    0.4915    0.2676 H   0  0  0  0  0  0  0  0  0  0  0  0
    5.1430   -2.4084   -0.5717 H   0  0  0  0  0  0  0  0  0  0  0  0
    4.9559   -1.0068   -1.6763 H   0  0  0  0  0  0  0  0  0  0  0  0
    0.8322   -1.5009   -0.0728 H   0  0  0  0  0  0  0  0  0  0  0  0
    0.8428   -2.1000   -1.7356 H   0  0  0  0  0  0  0  0  0  0  0  0
    1.8306    2.8909    0.5377 H   0  0  0  0  0  0  0  0  0  0  0  0
    0.2483    2.7214    1.3294 H   0  0  0  0  0  0  0  0  0  0  0  0
    2.0734    2.6812    3.0299 H   0  0  0  0  0  0  0  0  0  0  0  0
    1.2494    1.1127    2.9710 H   0  0  0  0  0  0  0  0  0  0  0  0
    2.8285    1.3090    2.2040 H   0  0  0  0  0  0  0  0  0  0  0  0
   -3.9306    1.6764   -0.1405 H   0  0  0  0  0  0  0  0  0  0  0  0
   -2.4554    2.5429   -0.6762 H   0  0  0  0  0  0  0  0  0  0  0  0
   -3.2271    2.9650    0.8811 H   0  0  0  0  0  0  0  0  0  0  0  0
   -3.8996   -2.4309   -0.5554 H   0  0  0  0  0  0  0  0  0  0  0  0
   -5.1594   -2.0396    0.6539 H   0  0  0  0  0  0  0  0  0  0  0  0
   -3.5794   -2.6922    1.1824 H   0  0  0  0  0  0  0  0  0  0  0  0
  1  2  1  0  0  0  0
  2  3  1  0  0  0  0
  3  4  1  0  0  0  0
  4  5  2  0  0  0  0
  4  6  1  0  0  0  0
  6  7  1  0  0  0  0
  7  8  1  0  0  0  0
  7  9  1  0  0  0  0
  9 10  2  0  0  0  0
  9 11  1  0  0  0  0
 11 12  1  0  0  0  0
 12 13  1  0  0  0  0
  7 14  1  0  0  0  0
 14 15  1  0  0  0  0
 15 16  2  0  0  0  0
 15 17  2  0  0  0  0
 17 18  1  0  0  0  0
 15 19  2  0  0  0  0
 19 20  1  0  0  0  0
  1 21  1  0  0  0  0
  1 22  1  0  0  0  0
  1 23  1  0  0  0  0
  2 24  1  0  0  0  0
  2 25  1  0  0  0  0
  6 26  1  0  0  0  0
  6 27  1  0  0  0  0
 12 28  1  0  0  0  0
 12 29  1  0  0  0  0
 13 30  1  0  0  0  0
 13 31  1  0  0  0  0
 13 32  1  0  0  0  0
 18 33  1  0  0  0  0
 18 34  1  0  0  0  0
 18 35  1  0  0  0  0
 20 36  1  0  0  0  0
 20 37  1  0  0  0  0
 20 38  1  0  0  0  0
M  END
