 xtb: 6.7.1 (edcfbbe)
          04092507313D

 38 37  0     0  0            999 V2000
    5.1911   -1.3254   -2.2693 C   0  0  0  0  0  0  0  0  0  0  0  0
    4.2138   -0.2742   -1.7672 C   0  0  0  0  0  0  0  0  0  0  0  0
    2.9053   -0.8404   -1.5649 O   0  0  0  0  0  0  0  0  0  0  0  0
    2.6420   -1.4146   -0.4094 C   0  0  0  0  0  0  0  0  0  0  0  0
    3.4240   -1.5157    0.5086 O   0  0  0  0  0  0  0  0  0  0  0  0
    1.2119   -1.9273   -0.3632 C   0  0  0  0  0  0  0  0  0  0  0  0
    0.2479   -0.7411   -0.4406 C   0  0  0  0  0  0  0  0  0  0  0  0
    0.3834   -0.2000   -1.3799 H   0  0  0  0  0  0  0  0  0  0  0  0
    0.5004    0.1955    0.7267 C   0  0  0  0  0  0  0  0  0  0  0  0
   -0.2106    0.2377    1.7088 O   0  0  0  0  0  0  0  0  0  0  0  0
    1.5891    0.8972    0.5410 O   0  0  0  0  0  0  0  0  0  0  0  0
    2.0082    1.7929    1.5926 C   0  0  0  0  0  0  0  0  0  0  0  0
    2.6762    1.0353    2.7285 C   0  0  0  0  0  0  0  0  0  0  0  0
   -1.4722   -1.3337   -0.3311 S   0  0  0  0  0  0  0  0  0  0  0  0
   -2.4060    0.5385    0.0171 P   0  0  0  0  0  0  0  0  0  0  0  0
   -1.4372    2.1165   -0.6191 S   0  0  0  0  0  0  0  0  0  0  0  0
   -3.8202    0.3168   -0.7044 O   0  0  0  0  0  0  0  0  0  0  0  0
   -3.9214    0.2030   -2.1284 C   0  0  0  0  0  0  0  0  0  0  0  0
   -2.8947    0.6658    1.5105 O   0  0  0  0  0  0  0  0  0  0  0  0
   -3.5324   -0.4173    2.2167 C   0  0  0  0  0  0  0  0  0  0  0  0
    6.1471   -0.8557   -2.4753 H   0  0  0  0  0  0  0  0  0  0  0  0
    5.3317   -2.0960   -1.5148 H   0  0  0  0  0  0  0  0  0  0  0  0
    4.8134   -1.7836   -3.1790 H   0  0  0  0  0  0  0  0  0  0  0  0
    4.0586    0.5123   -2.5057 H   0  0  0  0  0  0  0  0  0  0  0  0
    4.5565    0.1547   -0.8216 H   0  0  0  0  0  0  0  0  0  0  0  0
    1.0621   -2.4778    0.5661 H   0  0  0  0  0  0  0  0  0  0  0  0
    1.0333   -2.5841   -1.2146 H   0  0  0  0  0  0  0  0  0  0  0  0
    2.7012    2.4713    1.0954 H   0  0  0  0  0  0  0  0  0  0  0  0
    1.1292    2.3407    1.9451 H   0  0  0  0  0  0  0  0  0  0  0  0
    3.1226    1.7438    3.4178 H   0  0  0  0  0  0  0  0  0  0  0  0
    1.9441    0.4335    3.2619 H   0  0  0  0  0  0  0  0  0  0  0  0
    3.4468    0.3761    2.3347 H   0  0  0  0  0  0  0  0  0  0  0  0
   -4.9825    0.2760   -2.3520 H   0  0  0  0  0  0  0  0  0  0  0  0
   -3.5237   -0.7587   -2.4518 H   0  0  0  0  0  0  0  0  0  0  0  0
   -3.3739    1.0157   -2.6083 H   0  0  0  0  0  0  0  0  0  0  0  0
   -4.3730   -0.7985    1.6397 H   0  0  0  0  0  0  0  0  0  0  0  0
   -3.8682    0.0179    3.1542 H   0  0  0  0  0  0  0  0  0  0  0  0
   -2.8046   -1.2072    2.4008 H   0  0  0  0  0  0  0  0  0  0  0  0
  1  2  1  0  0  0  0
  2  3  1  0  0  0  0
  3  4  1  0  0  0  0
  4  5  2  0  0  0  0
  4  6  1  0  0  0  0
  6  7  1  0  0  0  0
  7  8  1  0  0  0  0
  7  9  1  0  0  0  0
  9 10  2  0  0  0  0
  9 11  4  0  0  0  0
 11 12  1  0  0  0  0
 12 13  1  0  0  0  0
  7 14  1  0  0  0  0
 14 15  1  0  0  0  0
 15 16  2  0  0  0  0
 15 17  1  0  0  0  0
 17 18  1  0  0  0  0
 15 19  2  0  0  0  0
 19 20  1  0  0  0  0
  1 21  1  0  0  0  0
  1 22  1  0  0  0  0
  1 23  1  0  0  0  0
  2 24  1  0  0  0  0
  2 25  1  0  0  0  0
  6 26  1  0  0  0  0
  6 27  1  0  0  0  0
 12 28  1  0  0  0  0
 12 29  1  0  0  0  0
 13 30  1  0  0  0  0
 13 31  1  0  0  0  0
 13 32  1  0  0  0  0
 18 33  1  0  0  0  0
 18 34  1  0  0  0  0
 18 35  1  0  0  0  0
 20 36  1  0  0  0  0
 20 37  1  0  0  0  0
 20 38  1  0  0  0  0
M  END
