 xtb: 6.7.1 (edcfbbe)
          04092513593D

 41 40  0     0  0            999 V2000
    5.4036   -2.0608   -1.7198 C   0  0  0  0  0  0  0  0  0  0  0  0
    4.3410   -0.9801   -1.7480 C   0  0  0  0  0  0  0  0  0  0  0  0
    3.3424   -1.3094   -0.7606 O   0  0  0  0  0  0  0  0  0  0  0  0
    2.3691   -0.2210   -0.1311 P   0  0  0  0  0  0  0  0  0  0  0  0
    3.2595    1.4320    0.4461 S   0  0  0  0  0  0  0  0  0  0  0  0
    1.6442   -1.0588    0.9946 O   0  0  0  0  0  0  0  0  0  0  0  0
    2.2074   -1.2170    2.3220 C   0  0  0  0  0  0  0  0  0  0  0  0
    1.0870   -1.1346    3.3380 C   0  0  0  0  0  0  0  0  0  0  0  0
    0.8323   -0.0197   -1.5627 S   0  0  0  0  0  0  0  0  0  0  0  0
    0.1365    1.5301   -0.9203 C   0  0  0  0  0  0  0  0  0  0  0  0
   -0.8012    1.3091    0.6033 S   0  0  0  0  0  0  0  0  0  0  0  0
   -2.4786    0.3310   -0.3006 P   0  0  0  0  0  0  0  0  0  0  0  0
   -3.0132    1.0180   -2.0509 S   0  0  0  0  0  0  0  0  0  0  0  0
   -3.5471    0.3057    0.8735 O   0  0  0  0  0  0  0  0  0  0  0  0
   -3.9547    1.4333    1.6721 C   0  0  0  0  0  0  0  0  0  0  0  0
   -4.5558    2.5530    0.8488 C   0  0  0  0  0  0  0  0  0  0  0  0
   -2.0981   -1.1932   -0.4237 O   0  0  0  0  0  0  0  0  0  0  0  0
   -1.6938   -1.9953    0.7122 C   0  0  0  0  0  0  0  0  0  0  0  0
   -2.7973   -2.9614    1.0902 C   0  0  0  0  0  0  0  0  0  0  0  0
    5.8913   -2.0837   -0.7493 H   0  0  0  0  0  0  0  0  0  0  0  0
    4.9517   -3.0298   -1.9110 H   0  0  0  0  0  0  0  0  0  0  0  0
    6.1426   -1.8518   -2.4865 H   0  0  0  0  0  0  0  0  0  0  0  0
    3.8492   -0.9301   -2.7230 H   0  0  0  0  0  0  0  0  0  0  0  0
    4.7614    0.0020   -1.5067 H   0  0  0  0  0  0  0  0  0  0  0  0
    2.7025   -2.1897    2.3453 H   0  0  0  0  0  0  0  0  0  0  0  0
    2.9485   -0.4277    2.4863 H   0  0  0  0  0  0  0  0  0  0  0  0
    0.3578   -1.9184    3.1552 H   0  0  0  0  0  0  0  0  0  0  0  0
    1.5030   -1.2575    4.3328 H   0  0  0  0  0  0  0  0  0  0  0  0
    0.5961   -0.1665    3.2733 H   0  0  0  0  0  0  0  0  0  0  0  0
   -0.5243    1.9169   -1.6975 H   0  0  0  0  0  0  0  0  0  0  0  0
    0.9467    2.2252   -0.6983 H   0  0  0  0  0  0  0  0  0  0  0  0
   -4.6895    1.0069    2.3575 H   0  0  0  0  0  0  0  0  0  0  0  0
   -3.0853    1.7887    2.2319 H   0  0  0  0  0  0  0  0  0  0  0  0
   -3.8073    2.9756    0.1805 H   0  0  0  0  0  0  0  0  0  0  0  0
   -5.3821    2.1822    0.2472 H   0  0  0  0  0  0  0  0  0  0  0  0
   -4.9169    3.3312    1.5138 H   0  0  0  0  0  0  0  0  0  0  0  0
   -0.7921   -2.5182    0.3851 H   0  0  0  0  0  0  0  0  0  0  0  0
   -1.4477   -1.3306    1.5449 H   0  0  0  0  0  0  0  0  0  0  0  0
   -3.0450   -3.5938    0.2424 H   0  0  0  0  0  0  0  0  0  0  0  0
   -2.4611   -3.5820    1.9151 H   0  0  0  0  0  0  0  0  0  0  0  0
   -3.6871   -2.4138    1.3899 H   0  0  0  0  0  0  0  0  0  0  0  0
  1  2  1  0  0  0  0
  2  3  1  0  0  0  0
  3  4  2  0  0  0  0
  4  5  2  0  0  0  0
  4  6  2  0  0  0  0
  6  7  1  0  0  0  0
  7  8  1  0  0  0  0
  4  9  1  0  0  0  0
  9 10  1  0  0  0  0
 10 11  1  0  0  0  0
 11 12  1  0  0  0  0
 12 13  2  0  0  0  0
 12 14  2  0  0  0  0
 14 15  1  0  0  0  0
 15 16  1  0  0  0  0
 12 17  2  0  0  0  0
 17 18  1  0  0  0  0
 18 19  1  0  0  0  0
  1 20  1  0  0  0  0
  1 21  1  0  0  0  0
  1 22  1  0  0  0  0
  2 23  1  0  0  0  0
  2 24  1  0  0  0  0
  7 25  1  0  0  0  0
  7 26  1  0  0  0  0
  8 27  1  0  0  0  0
  8 28  1  0  0  0  0
  8 29  1  0  0  0  0
 10 30  1  0  0  0  0
 10 31  1  0  0  0  0
 15 32  1  0  0  0  0
 15 33  1  0  0  0  0
 16 34  1  0  0  0  0
 16 35  1  0  0  0  0
 16 36  1  0  0  0  0
 18 37  1  0  0  0  0
 18 38  1  0  0  0  0
 19 39  1  0  0  0  0
 19 40  1  0  0  0  0
 19 41  1  0  0  0  0
M  END
