 xtb: 6.7.1 (edcfbbe)
          04092505213D

 41 40  0     0  0            999 V2000
    0.8447    2.7562    1.1232 C   0  0  0  0  0  0  0  0  0  0  0  0
    2.2025    2.0998    1.2742 C   0  0  0  0  0  0  0  0  0  0  0  0
    2.3466    1.0347    0.3054 O   0  0  0  0  0  0  0  0  0  0  0  0
    2.2125   -0.4924    0.6905 P   0  0  0  0  0  0  0  0  0  0  0  0
    0.8241   -0.9670    1.9983 S   0  0  0  0  0  0  0  0  0  0  0  0
    3.6897   -0.8188    1.1803 O   0  0  0  0  0  0  0  0  0  0  0  0
    4.0180   -2.0110    1.9142 C   0  0  0  0  0  0  0  0  0  0  0  0
    3.8862   -3.2571    1.0627 C   0  0  0  0  0  0  0  0  0  0  0  0
    2.0663   -1.3292   -1.2390 S   0  0  0  0  0  0  0  0  0  0  0  0
    0.2738   -1.2107   -1.3830 C   0  0  0  0  0  0  0  0  0  0  0  0
   -0.2673    0.5113   -1.6753 S   0  0  0  0  0  0  0  0  0  0  0  0
   -2.2082    0.2489   -0.8965 P   0  0  0  0  0  0  0  0  0  0  0  0
   -3.1326   -1.3978   -1.3938 S   0  0  0  0  0  0  0  0  0  0  0  0
   -3.0238    1.5347   -1.3303 O   0  0  0  0  0  0  0  0  0  0  0  0
   -2.6490    2.8877   -0.9674 C   0  0  0  0  0  0  0  0  0  0  0  0
   -1.8646    3.5497   -2.0820 C   0  0  0  0  0  0  0  0  0  0  0  0
   -1.8860    0.4042    0.6644 O   0  0  0  0  0  0  0  0  0  0  0  0
   -2.7021   -0.2195    1.6710 C   0  0  0  0  0  0  0  0  0  0  0  0
   -3.9957    0.5407    1.8762 C   0  0  0  0  0  0  0  0  0  0  0  0
    0.7684    3.5897    1.8141 H   0  0  0  0  0  0  0  0  0  0  0  0
    0.7195    3.1129    0.1043 H   0  0  0  0  0  0  0  0  0  0  0  0
    0.0594    2.0352    1.3434 H   0  0  0  0  0  0  0  0  0  0  0  0
    2.3347    1.6946    2.2816 H   0  0  0  0  0  0  0  0  0  0  0  0
    3.0120    2.7955    1.0487 H   0  0  0  0  0  0  0  0  0  0  0  0
    5.0480   -1.8467    2.2331 H   0  0  0  0  0  0  0  0  0  0  0  0
    3.3617   -2.0709    2.7886 H   0  0  0  0  0  0  0  0  0  0  0  0
    4.4536   -3.1468    0.1420 H   0  0  0  0  0  0  0  0  0  0  0  0
    4.2580   -4.1128    1.6171 H   0  0  0  0  0  0  0  0  0  0  0  0
    2.8404   -3.4277    0.8099 H   0  0  0  0  0  0  0  0  0  0  0  0
   -0.1853   -1.5683   -0.4587 H   0  0  0  0  0  0  0  0  0  0  0  0
   -0.0236   -1.8254   -2.2297 H   0  0  0  0  0  0  0  0  0  0  0  0
   -3.6022    3.3930   -0.8025 H   0  0  0  0  0  0  0  0  0  0  0  0
   -2.0758    2.8618   -0.0377 H   0  0  0  0  0  0  0  0  0  0  0  0
   -1.6669    4.5821   -1.8109 H   0  0  0  0  0  0  0  0  0  0  0  0
   -0.9199    3.0342   -2.2444 H   0  0  0  0  0  0  0  0  0  0  0  0
   -2.4362    3.5239   -3.0054 H   0  0  0  0  0  0  0  0  0  0  0  0
   -2.9043   -1.2514    1.3663 H   0  0  0  0  0  0  0  0  0  0  0  0
   -2.0727   -0.2229    2.5630 H   0  0  0  0  0  0  0  0  0  0  0  0
   -4.5694    0.0639    2.6645 H   0  0  0  0  0  0  0  0  0  0  0  0
   -3.7920    1.5719    2.1522 H   0  0  0  0  0  0  0  0  0  0  0  0
   -4.5779    0.5249    0.9549 H   0  0  0  0  0  0  0  0  0  0  0  0
  1  2  1  0  0  0  0
  2  3  1  0  0  0  0
  3  4  2  0  0  0  0
  4  5  2  0  0  0  0
  4  6  2  0  0  0  0
  6  7  1  0  0  0  0
  7  8  1  0  0  0  0
  4  9  1  0  0  0  0
  9 10  1  0  0  0  0
 10 11  1  0  0  0  0
 11 12  1  0  0  0  0
 12 13  2  0  0  0  0
 12 14  2  0  0  0  0
 14 15  1  0  0  0  0
 15 16  1  0  0  0  0
 12 17  1  0  0  0  0
 17 18  1  0  0  0  0
 18 19  1  0  0  0  0
  1 20  1  0  0  0  0
  1 21  1  0  0  0  0
  1 22  1  0  0  0  0
  2 23  1  0  0  0  0
  2 24  1  0  0  0  0
  7 25  1  0  0  0  0
  7 26  1  0  0  0  0
  8 27  1  0  0  0  0
  8 28  1  0  0  0  0
  8 29  1  0  0  0  0
 10 30  1  0  0  0  0
 10 31  1  0  0  0  0
 15 32  1  0  0  0  0
 15 33  1  0  0  0  0
 16 34  1  0  0  0  0
 16 35  1  0  0  0  0
 16 36  1  0  0  0  0
 18 37  1  0  0  0  0
 18 38  1  0  0  0  0
 19 39  1  0  0  0  0
 19 40  1  0  0  0  0
 19 41  1  0  0  0  0
M  END
