 xtb: 6.7.1 (edcfbbe)
          04092505213D

 41 40  0     0  0            999 V2000
    2.5059   -1.1593   -2.9872 C   0  0  0  0  0  0  0  0  0  0  0  0
    3.3240   -1.7649   -1.8655 C   0  0  0  0  0  0  0  0  0  0  0  0
    3.2924   -0.9782   -0.6606 O   0  0  0  0  0  0  0  0  0  0  0  0
    1.9828   -0.3966    0.0294 P   0  0  0  0  0  0  0  0  0  0  0  0
    1.3912    1.3209   -0.7430 S   0  0  0  0  0  0  0  0  0  0  0  0
    2.4334   -0.3092    1.5469 O   0  0  0  0  0  0  0  0  0  0  0  0
    2.8978    0.9099    2.1531 C   0  0  0  0  0  0  0  0  0  0  0  0
    4.2995    1.2456    1.6897 C   0  0  0  0  0  0  0  0  0  0  0  0
    0.7567   -2.1163    0.1066 S   0  0  0  0  0  0  0  0  0  0  0  0
   -0.4343   -1.6879    1.4249 C   0  0  0  0  0  0  0  0  0  0  0  0
   -0.7011    0.0845    1.6829 S   0  0  0  0  0  0  0  0  0  0  0  0
   -1.9553    0.5280    0.0445 P   0  0  0  0  0  0  0  0  0  0  0  0
   -2.3209    2.4289   -0.2492 S   0  0  0  0  0  0  0  0  0  0  0  0
   -3.2777   -0.3450    0.2690 O   0  0  0  0  0  0  0  0  0  0  0  0
   -4.4290    0.1779    0.9479 C   0  0  0  0  0  0  0  0  0  0  0  0
   -4.1882    0.3174    2.4376 C   0  0  0  0  0  0  0  0  0  0  0  0
   -1.2471   -0.3397   -1.0751 O   0  0  0  0  0  0  0  0  0  0  0  0
   -1.8243   -0.5921   -2.3760 C   0  0  0  0  0  0  0  0  0  0  0  0
   -1.5575    0.5520   -3.3327 C   0  0  0  0  0  0  0  0  0  0  0  0
    2.6011   -1.7712   -3.8782 H   0  0  0  0  0  0  0  0  0  0  0  0
    1.4566   -1.1138   -2.6953 H   0  0  0  0  0  0  0  0  0  0  0  0
    2.8459   -0.1487   -3.2030 H   0  0  0  0  0  0  0  0  0  0  0  0
    4.3845   -1.8051   -2.1204 H   0  0  0  0  0  0  0  0  0  0  0  0
    2.9618   -2.7679   -1.6216 H   0  0  0  0  0  0  0  0  0  0  0  0
    2.2001    1.7166    1.9020 H   0  0  0  0  0  0  0  0  0  0  0  0
    2.8554    0.7078    3.2240 H   0  0  0  0  0  0  0  0  0  0  0  0
    4.2925    1.4280    0.6153 H   0  0  0  0  0  0  0  0  0  0  0  0
    4.6472    2.1382    2.2000 H   0  0  0  0  0  0  0  0  0  0  0  0
    4.9718    0.4183    1.8997 H   0  0  0  0  0  0  0  0  0  0  0  0
   -0.0474   -2.0637    2.3693 H   0  0  0  0  0  0  0  0  0  0  0  0
   -1.3743   -2.1679    1.1600 H   0  0  0  0  0  0  0  0  0  0  0  0
   -4.6773    1.1492    0.5082 H   0  0  0  0  0  0  0  0  0  0  0  0
   -5.2170   -0.5444    0.7304 H   0  0  0  0  0  0  0  0  0  0  0  0
   -3.4090    1.0581    2.6165 H   0  0  0  0  0  0  0  0  0  0  0  0
   -5.1030    0.6468    2.9195 H   0  0  0  0  0  0  0  0  0  0  0  0
   -3.8762   -0.6317    2.8654 H   0  0  0  0  0  0  0  0  0  0  0  0
   -1.3294   -1.5100   -2.7014 H   0  0  0  0  0  0  0  0  0  0  0  0
   -2.8954   -0.7716   -2.2582 H   0  0  0  0  0  0  0  0  0  0  0  0
   -1.8893    0.2750   -4.3280 H   0  0  0  0  0  0  0  0  0  0  0  0
   -2.0882    1.4468   -3.0132 H   0  0  0  0  0  0  0  0  0  0  0  0
   -0.4941    0.7803   -3.3555 H   0  0  0  0  0  0  0  0  0  0  0  0
  1  2  1  0  0  0  0
  2  3  1  0  0  0  0
  3  4  2  0  0  0  0
  4  5  2  0  0  0  0
  4  6  2  0  0  0  0
  6  7  1  0  0  0  0
  7  8  1  0  0  0  0
  4  9  1  0  0  0  0
  9 10  1  0  0  0  0
 10 11  1  0  0  0  0
 11 12  1  0  0  0  0
 12 13  2  0  0  0  0
 12 14  1  0  0  0  0
 14 15  1  0  0  0  0
 15 16  1  0  0  0  0
 12 17  2  0  0  0  0
 17 18  1  0  0  0  0
 18 19  1  0  0  0  0
  1 20  1  0  0  0  0
  1 21  1  0  0  0  0
  1 22  1  0  0  0  0
  2 23  1  0  0  0  0
  2 24  1  0  0  0  0
  7 25  1  0  0  0  0
  7 26  1  0  0  0  0
  8 27  1  0  0  0  0
  8 28  1  0  0  0  0
  8 29  1  0  0  0  0
 10 30  1  0  0  0  0
 10 31  1  0  0  0  0
 15 32  1  0  0  0  0
 15 33  1  0  0  0  0
 16 34  1  0  0  0  0
 16 35  1  0  0  0  0
 16 36  1  0  0  0  0
 18 37  1  0  0  0  0
 18 38  1  0  0  0  0
 19 39  1  0  0  0  0
 19 40  1  0  0  0  0
 19 41  1  0  0  0  0
M  END
