 xtb: 6.7.1 (edcfbbe)
          04092505213D

 41 40  0     0  0            999 V2000
    2.9580   -0.3539   -2.4488 C   0  0  0  0  0  0  0  0  0  0  0  0
    1.6957    0.2875   -1.9158 C   0  0  0  0  0  0  0  0  0  0  0  0
    1.0905   -0.5187   -0.8871 O   0  0  0  0  0  0  0  0  0  0  0  0
    1.7667   -0.6686    0.5434 P   0  0  0  0  0  0  0  0  0  0  0  0
    2.8953    0.8290    1.1322 S   0  0  0  0  0  0  0  0  0  0  0  0
    2.4833   -2.0760    0.3674 O   0  0  0  0  0  0  0  0  0  0  0  0
    3.2203   -2.7163    1.4295 C   0  0  0  0  0  0  0  0  0  0  0  0
    4.6923   -2.3571    1.3662 C   0  0  0  0  0  0  0  0  0  0  0  0
    0.1465   -1.1914    1.7815 S   0  0  0  0  0  0  0  0  0  0  0  0
   -0.5634    0.4584    2.0965 C   0  0  0  0  0  0  0  0  0  0  0  0
   -0.4934    1.6070    0.6952 S   0  0  0  0  0  0  0  0  0  0  0  0
   -1.9548    0.8097   -0.6065 P   0  0  0  0  0  0  0  0  0  0  0  0
   -1.8450    1.3677   -2.4804 S   0  0  0  0  0  0  0  0  0  0  0  0
   -3.3729    1.0982    0.0761 O   0  0  0  0  0  0  0  0  0  0  0  0
   -4.1248    2.2888   -0.2021 C   0  0  0  0  0  0  0  0  0  0  0  0
   -3.4560    3.5257    0.3630 C   0  0  0  0  0  0  0  0  0  0  0  0
   -1.8040   -0.7330   -0.3074 O   0  0  0  0  0  0  0  0  0  0  0  0
   -2.3757   -1.7453   -1.1663 C   0  0  0  0  0  0  0  0  0  0  0  0
   -1.5559   -3.0085   -1.0024 C   0  0  0  0  0  0  0  0  0  0  0  0
    3.7052   -0.4000   -1.6570 H   0  0  0  0  0  0  0  0  0  0  0  0
    2.7496   -1.3618   -2.7973 H   0  0  0  0  0  0  0  0  0  0  0  0
    3.3450    0.2426   -3.2689 H   0  0  0  0  0  0  0  0  0  0  0  0
    0.9223    0.3747   -2.6819 H   0  0  0  0  0  0  0  0  0  0  0  0
    1.9065    1.2802   -1.5017 H   0  0  0  0  0  0  0  0  0  0  0  0
    2.7872   -2.4308    2.3921 H   0  0  0  0  0  0  0  0  0  0  0  0
    3.0641   -3.7837    1.2626 H   0  0  0  0  0  0  0  0  0  0  0  0
    5.1020   -2.6253    0.3963 H   0  0  0  0  0  0  0  0  0  0  0  0
    4.8268   -1.2888    1.5213 H   0  0  0  0  0  0  0  0  0  0  0  0
    5.2250   -2.8968    2.1425 H   0  0  0  0  0  0  0  0  0  0  0  0
    0.0069    0.9473    2.8846 H   0  0  0  0  0  0  0  0  0  0  0  0
   -1.5962    0.2951    2.3949 H   0  0  0  0  0  0  0  0  0  0  0  0
   -4.2403    2.3776   -1.2871 H   0  0  0  0  0  0  0  0  0  0  0  0
   -5.0949    2.1047    0.2616 H   0  0  0  0  0  0  0  0  0  0  0  0
   -3.2844    3.4138    1.4304 H   0  0  0  0  0  0  0  0  0  0  0  0
   -2.4973    3.6864   -0.1308 H   0  0  0  0  0  0  0  0  0  0  0  0
   -4.0900    4.3891    0.1889 H   0  0  0  0  0  0  0  0  0  0  0  0
   -3.4133   -1.8953   -0.8591 H   0  0  0  0  0  0  0  0  0  0  0  0
   -2.3533   -1.3801   -2.1989 H   0  0  0  0  0  0  0  0  0  0  0  0
   -1.9588   -3.7819   -1.6481 H   0  0  0  0  0  0  0  0  0  0  0  0
   -0.5200   -2.8166   -1.2719 H   0  0  0  0  0  0  0  0  0  0  0  0
   -1.5888   -3.3419    0.0312 H   0  0  0  0  0  0  0  0  0  0  0  0
  1  2  1  0  0  0  0
  2  3  1  0  0  0  0
  3  4  1  0  0  0  0
  4  5  2  0  0  0  0
  4  6  2  0  0  0  0
  6  7  1  0  0  0  0
  7  8  1  0  0  0  0
  4  9  1  0  0  0  0
  9 10  1  0  0  0  0
 10 11  1  0  0  0  0
 11 12  1  0  0  0  0
 12 13  2  0  0  0  0
 12 14  1  0  0  0  0
 14 15  1  0  0  0  0
 15 16  1  0  0  0  0
 12 17  2  0  0  0  0
 17 18  1  0  0  0  0
 18 19  1  0  0  0  0
  1 20  1  0  0  0  0
  1 21  1  0  0  0  0
  1 22  1  0  0  0  0
  2 23  1  0  0  0  0
  2 24  1  0  0  0  0
  7 25  1  0  0  0  0
  7 26  1  0  0  0  0
  8 27  1  0  0  0  0
  8 28  1  0  0  0  0
  8 29  1  0  0  0  0
 10 30  1  0  0  0  0
 10 31  1  0  0  0  0
 15 32  1  0  0  0  0
 15 33  1  0  0  0  0
 16 34  1  0  0  0  0
 16 35  1  0  0  0  0
 16 36  1  0  0  0  0
 18 37  1  0  0  0  0
 18 38  1  0  0  0  0
 19 39  1  0  0  0  0
 19 40  1  0  0  0  0
 19 41  1  0  0  0  0
M  END
