 xtb: 6.7.1 (edcfbbe)
          04092514013D

 41 40  0     0  0            999 V2000
    5.5609   -1.3086   -1.2309 C   0  0  0  0  0  0  0  0  0  0  0  0
    4.1312   -1.6241   -1.6268 C   0  0  0  0  0  0  0  0  0  0  0  0
    3.2639   -1.5760   -0.4747 O   0  0  0  0  0  0  0  0  0  0  0  0
    2.3052   -0.3413   -0.1784 P   0  0  0  0  0  0  0  0  0  0  0  0
    3.1590    1.4276   -0.1773 S   0  0  0  0  0  0  0  0  0  0  0  0
    1.6428   -0.8012    1.1800 O   0  0  0  0  0  0  0  0  0  0  0  0
    2.1266   -0.4099    2.4878 C   0  0  0  0  0  0  0  0  0  0  0  0
    0.9880    0.2055    3.2766 C   0  0  0  0  0  0  0  0  0  0  0  0
    0.7242   -0.6322   -1.5486 S   0  0  0  0  0  0  0  0  0  0  0  0
    0.0163    1.0382   -1.4532 C   0  0  0  0  0  0  0  0  0  0  0  0
   -0.7892    1.3903    0.1234 S   0  0  0  0  0  0  0  0  0  0  0  0
   -2.6843    0.4512   -0.2256 P   0  0  0  0  0  0  0  0  0  0  0  0
   -3.0753    0.1023   -2.1135 S   0  0  0  0  0  0  0  0  0  0  0  0
   -3.7840    1.3968    0.3855 O   0  0  0  0  0  0  0  0  0  0  0  0
   -4.0997    1.5252    1.7950 C   0  0  0  0  0  0  0  0  0  0  0  0
   -2.9384    2.0601    2.6051 C   0  0  0  0  0  0  0  0  0  0  0  0
   -2.7368   -0.7700    0.7968 O   0  0  0  0  0  0  0  0  0  0  0  0
   -1.7711   -1.8285    0.8802 C   0  0  0  0  0  0  0  0  0  0  0  0
   -1.9549   -2.8620   -0.2123 C   0  0  0  0  0  0  0  0  0  0  0  0
    5.6343   -0.2862   -0.8666 H   0  0  0  0  0  0  0  0  0  0  0  0
    5.8895   -1.9862   -0.4480 H   0  0  0  0  0  0  0  0  0  0  0  0
    6.2040   -1.4229   -2.0978 H   0  0  0  0  0  0  0  0  0  0  0  0
    4.0390   -2.6430   -2.0072 H   0  0  0  0  0  0  0  0  0  0  0  0
    3.7712   -0.9207   -2.3831 H   0  0  0  0  0  0  0  0  0  0  0  0
    2.4971   -1.3215    2.9601 H   0  0  0  0  0  0  0  0  0  0  0  0
    2.9497    0.3011    2.3666 H   0  0  0  0  0  0  0  0  0  0  0  0
    0.6484    1.1180    2.7917 H   0  0  0  0  0  0  0  0  0  0  0  0
    0.1583   -0.4929    3.3410 H   0  0  0  0  0  0  0  0  0  0  0  0
    1.3359    0.4410    4.2772 H   0  0  0  0  0  0  0  0  0  0  0  0
   -0.7165    1.1040   -2.2588 H   0  0  0  0  0  0  0  0  0  0  0  0
    0.8128    1.7727   -1.5698 H   0  0  0  0  0  0  0  0  0  0  0  0
   -4.9446    2.2154    1.7983 H   0  0  0  0  0  0  0  0  0  0  0  0
   -4.4175    0.5477    2.1617 H   0  0  0  0  0  0  0  0  0  0  0  0
   -2.5984    3.0107    2.2024 H   0  0  0  0  0  0  0  0  0  0  0  0
   -3.2581    2.2003    3.6331 H   0  0  0  0  0  0  0  0  0  0  0  0
   -2.1077    1.3569    2.5866 H   0  0  0  0  0  0  0  0  0  0  0  0
   -0.7646   -1.4004    0.8450 H   0  0  0  0  0  0  0  0  0  0  0  0
   -1.9458   -2.2630    1.8667 H   0  0  0  0  0  0  0  0  0  0  0  0
   -1.2487   -3.6715   -0.0575 H   0  0  0  0  0  0  0  0  0  0  0  0
   -2.9677   -3.2555   -0.1908 H   0  0  0  0  0  0  0  0  0  0  0  0
   -1.7736   -2.4202   -1.1904 H   0  0  0  0  0  0  0  0  0  0  0  0
  1  2  1  0  0  0  0
  2  3  1  0  0  0  0
  3  4  2  0  0  0  0
  4  5  2  0  0  0  0
  4  6  2  0  0  0  0
  6  7  1  0  0  0  0
  7  8  1  0  0  0  0
  4  9  1  0  0  0  0
  9 10  1  0  0  0  0
 10 11  1  0  0  0  0
 11 12  1  0  0  0  0
 12 13  2  0  0  0  0
 12 14  2  0  0  0  0
 14 15  1  0  0  0  0
 15 16  1  0  0  0  0
 12 17  2  0  0  0  0
 17 18  1  0  0  0  0
 18 19  1  0  0  0  0
  1 20  1  0  0  0  0
  1 21  1  0  0  0  0
  1 22  1  0  0  0  0
  2 23  1  0  0  0  0
  2 24  1  0  0  0  0
  7 25  1  0  0  0  0
  7 26  1  0  0  0  0
  8 27  1  0  0  0  0
  8 28  1  0  0  0  0
  8 29  1  0  0  0  0
 10 30  1  0  0  0  0
 10 31  1  0  0  0  0
 15 32  1  0  0  0  0
 15 33  1  0  0  0  0
 16 34  1  0  0  0  0
 16 35  1  0  0  0  0
 16 36  1  0  0  0  0
 18 37  1  0  0  0  0
 18 38  1  0  0  0  0
 19 39  1  0  0  0  0
 19 40  1  0  0  0  0
 19 41  1  0  0  0  0
M  END
