 xtb: 6.7.1 (edcfbbe)
          04032520223D

  8  7  0     0  0            999 V2000
   -1.4837   -0.0002    0.1078 C   0  0  0  0  0  0  0  0  0  0  0  0
   -0.0555    0.0000   -0.3734 C   0  0  0  0  0  0  0  0  0  0  0  0
    0.6300   -1.0846    0.1052 F   0  0  0  0  0  0  0  0  0  0  0  0
    0.6298    1.0847    0.1052 F   0  0  0  0  0  0  0  0  0  0  0  0
   -1.9833   -0.8885   -0.2644 H   0  0  0  0  0  0  0  0  0  0  0  0
   -1.5024   -0.0000    1.1946 H   0  0  0  0  0  0  0  0  0  0  0  0
   -1.9832    0.8883   -0.2650 H   0  0  0  0  0  0  0  0  0  0  0  0
    0.0643    0.0002   -1.4648 H   0  0  0  0  0  0  0  0  0  0  0  0
  1  2  1  0  0  0  0
  2  3  1  0  0  0  0
  2  4  1  0  0  0  0
  1  5  1  0  0  0  0
  1  6  1  0  0  0  0
  1  7  1  0  0  0  0
  2  8  1  0  0  0  0
M  END
