 xtb: 6.7.1 (edcfbbe)
          04092505213D

 41 40  0     0  0            999 V2000
    5.2215   -2.3957   -1.7248 C   0  0  0  0  0  0  0  0  0  0  0  0
    4.1280   -1.3515   -1.8200 C   0  0  0  0  0  0  0  0  0  0  0  0
    3.5425   -1.2087   -0.5087 O   0  0  0  0  0  0  0  0  0  0  0  0
    2.6167    0.0270   -0.1438 P   0  0  0  0  0  0  0  0  0  0  0  0
    3.3500    1.8074   -0.4869 S   0  0  0  0  0  0  0  0  0  0  0  0
    2.3205   -0.2021    1.3799 O   0  0  0  0  0  0  0  0  0  0  0  0
    1.8266   -1.4577    1.9216 C   0  0  0  0  0  0  0  0  0  0  0  0
    1.0780   -1.1425    3.1999 C   0  0  0  0  0  0  0  0  0  0  0  0
    0.8151   -0.4110   -1.2119 S   0  0  0  0  0  0  0  0  0  0  0  0
    0.0083    1.1666   -0.8568 C   0  0  0  0  0  0  0  0  0  0  0  0
   -0.8877    1.1470    0.7088 S   0  0  0  0  0  0  0  0  0  0  0  0
   -2.6963    0.3368   -0.1037 P   0  0  0  0  0  0  0  0  0  0  0  0
   -3.2569    1.1087   -1.8128 S   0  0  0  0  0  0  0  0  0  0  0  0
   -3.6917    0.3793    1.1323 O   0  0  0  0  0  0  0  0  0  0  0  0
   -3.9569    1.5318    1.9540 C   0  0  0  0  0  0  0  0  0  0  0  0
   -4.4021    2.7346    1.1493 C   0  0  0  0  0  0  0  0  0  0  0  0
   -2.4750   -1.2090   -0.2849 O   0  0  0  0  0  0  0  0  0  0  0  0
   -2.0841   -2.1008    0.7922 C   0  0  0  0  0  0  0  0  0  0  0  0
   -1.3939   -3.2975    0.1707 C   0  0  0  0  0  0  0  0  0  0  0  0
    5.6729   -2.5280   -2.7025 H   0  0  0  0  0  0  0  0  0  0  0  0
    5.9826   -2.0748   -1.0192 H   0  0  0  0  0  0  0  0  0  0  0  0
    4.8045   -3.3406   -1.3896 H   0  0  0  0  0  0  0  0  0  0  0  0
    3.3401   -1.6570   -2.5137 H   0  0  0  0  0  0  0  0  0  0  0  0
    4.5232   -0.3798   -2.1332 H   0  0  0  0  0  0  0  0  0  0  0  0
    1.1803   -1.9294    1.1763 H   0  0  0  0  0  0  0  0  0  0  0  0
    2.6909   -2.0975    2.1051 H   0  0  0  0  0  0  0  0  0  0  0  0
    0.2622   -0.4527    2.9969 H   0  0  0  0  0  0  0  0  0  0  0  0
    0.6833   -2.0619    3.6200 H   0  0  0  0  0  0  0  0  0  0  0  0
    1.7476   -0.6768    3.9169 H   0  0  0  0  0  0  0  0  0  0  0  0
   -0.6998    1.3689   -1.6632 H   0  0  0  0  0  0  0  0  0  0  0  0
    0.7717    1.9446   -0.7979 H   0  0  0  0  0  0  0  0  0  0  0  0
   -4.7432    1.1891    2.6288 H   0  0  0  0  0  0  0  0  0  0  0  0
   -3.0511    1.7609    2.5221 H   0  0  0  0  0  0  0  0  0  0  0  0
   -4.6672    3.5428    1.8232 H   0  0  0  0  0  0  0  0  0  0  0  0
   -3.5980    3.0685    0.4946 H   0  0  0  0  0  0  0  0  0  0  0  0
   -5.2618    2.4823    0.5330 H   0  0  0  0  0  0  0  0  0  0  0  0
   -1.4212   -1.5588    1.4725 H   0  0  0  0  0  0  0  0  0  0  0  0
   -2.9908   -2.3893    1.3264 H   0  0  0  0  0  0  0  0  0  0  0  0
   -2.0762   -3.8126   -0.4991 H   0  0  0  0  0  0  0  0  0  0  0  0
   -0.5293   -2.9750   -0.4048 H   0  0  0  0  0  0  0  0  0  0  0  0
   -1.0779   -3.9769    0.9558 H   0  0  0  0  0  0  0  0  0  0  0  0
  1  2  1  0  0  0  0
  2  3  1  0  0  0  0
  3  4  2  0  0  0  0
  4  5  2  0  0  0  0
  4  6  2  0  0  0  0
  6  7  1  0  0  0  0
  7  8  1  0  0  0  0
  4  9  1  0  0  0  0
  9 10  1  0  0  0  0
 10 11  1  0  0  0  0
 11 12  1  0  0  0  0
 12 13  2  0  0  0  0
 12 14  2  0  0  0  0
 14 15  1  0  0  0  0
 15 16  1  0  0  0  0
 12 17  2  0  0  0  0
 17 18  1  0  0  0  0
 18 19  1  0  0  0  0
  1 20  1  0  0  0  0
  1 21  1  0  0  0  0
  1 22  1  0  0  0  0
  2 23  1  0  0  0  0
  2 24  1  0  0  0  0
  7 25  1  0  0  0  0
  7 26  1  0  0  0  0
  8 27  1  0  0  0  0
  8 28  1  0  0  0  0
  8 29  1  0  0  0  0
 10 30  1  0  0  0  0
 10 31  1  0  0  0  0
 15 32  1  0  0  0  0
 15 33  1  0  0  0  0
 16 34  1  0  0  0  0
 16 35  1  0  0  0  0
 16 36  1  0  0  0  0
 18 37  1  0  0  0  0
 18 38  1  0  0  0  0
 19 39  1  0  0  0  0
 19 40  1  0  0  0  0
 19 41  1  0  0  0  0
M  END
