 xtb: 6.7.1 (edcfbbe)
          04092507313D

 38 37  0     0  0            999 V2000
    5.1347   -2.1235   -0.4423 C   0  0  0  0  0  0  0  0  0  0  0  0
    3.8452   -2.7710   -0.9212 C   0  0  0  0  0  0  0  0  0  0  0  0
    3.0325   -1.8241   -1.6433 O   0  0  0  0  0  0  0  0  0  0  0  0
    2.2155   -1.0502   -0.9675 C   0  0  0  0  0  0  0  0  0  0  0  0
    2.0584   -1.0891    0.2368 O   0  0  0  0  0  0  0  0  0  0  0  0
    1.4801   -0.0780   -1.8653 C   0  0  0  0  0  0  0  0  0  0  0  0
    0.2800    0.4871   -1.1206 C   0  0  0  0  0  0  0  0  0  0  0  0
   -0.1592    1.3330   -1.6574 H   0  0  0  0  0  0  0  0  0  0  0  0
    0.6566    0.9590    0.2728 C   0  0  0  0  0  0  0  0  0  0  0  0
   -0.0183    0.6989    1.2506 O   0  0  0  0  0  0  0  0  0  0  0  0
    1.6938    1.7529    0.2537 O   0  0  0  0  0  0  0  0  0  0  0  0
    2.1654    2.3032    1.5022 C   0  0  0  0  0  0  0  0  0  0  0  0
    3.3009    1.4568    2.0531 C   0  0  0  0  0  0  0  0  0  0  0  0
   -1.0154   -0.7857   -0.9319 S   0  0  0  0  0  0  0  0  0  0  0  0
   -2.3718    0.2918    0.2922 P   0  0  0  0  0  0  0  0  0  0  0  0
   -2.3996    2.2408    0.1094 S   0  0  0  0  0  0  0  0  0  0  0  0
   -3.7507   -0.3681   -0.2236 O   0  0  0  0  0  0  0  0  0  0  0  0
   -4.2622   -0.1045   -1.5322 C   0  0  0  0  0  0  0  0  0  0  0  0
   -2.4277   -0.2495    1.7771 O   0  0  0  0  0  0  0  0  0  0  0  0
   -2.1943   -1.6295    2.1081 C   0  0  0  0  0  0  0  0  0  0  0  0
    4.9153   -1.3410    0.2808 H   0  0  0  0  0  0  0  0  0  0  0  0
    5.7584   -2.8740    0.0319 H   0  0  0  0  0  0  0  0  0  0  0  0
    5.6704   -1.6908   -1.2825 H   0  0  0  0  0  0  0  0  0  0  0  0
    3.2664   -3.1566   -0.0772 H   0  0  0  0  0  0  0  0  0  0  0  0
    4.0418   -3.5643   -1.6421 H   0  0  0  0  0  0  0  0  0  0  0  0
    1.1746   -0.5819   -2.7814 H   0  0  0  0  0  0  0  0  0  0  0  0
    2.1651    0.7336   -2.1198 H   0  0  0  0  0  0  0  0  0  0  0  0
    2.4986    3.3107    1.2505 H   0  0  0  0  0  0  0  0  0  0  0  0
    1.3262    2.3446    2.2019 H   0  0  0  0  0  0  0  0  0  0  0  0
    4.1422    1.4651    1.3656 H   0  0  0  0  0  0  0  0  0  0  0  0
    3.6152    1.8556    3.0117 H   0  0  0  0  0  0  0  0  0  0  0  0
    2.9629    0.4309    2.1851 H   0  0  0  0  0  0  0  0  0  0  0  0
   -5.2836   -0.4759   -1.5281 H   0  0  0  0  0  0  0  0  0  0  0  0
   -3.6631   -0.6284   -2.2770 H   0  0  0  0  0  0  0  0  0  0  0  0
   -4.2475    0.9691   -1.7284 H   0  0  0  0  0  0  0  0  0  0  0  0
   -2.8035   -2.2783    1.4802 H   0  0  0  0  0  0  0  0  0  0  0  0
   -2.4784   -1.7217    3.1531 H   0  0  0  0  0  0  0  0  0  0  0  0
   -1.1355   -1.8572    1.9789 H   0  0  0  0  0  0  0  0  0  0  0  0
  1  2  1  0  0  0  0
  2  3  1  0  0  0  0
  3  4  4  0  0  0  0
  4  5  2  0  0  0  0
  4  6  1  0  0  0  0
  6  7  1  0  0  0  0
  7  8  1  0  0  0  0
  7  9  1  0  0  0  0
  9 10  2  0  0  0  0
  9 11  4  0  0  0  0
 11 12  1  0  0  0  0
 12 13  1  0  0  0  0
  7 14  1  0  0  0  0
 14 15  1  0  0  0  0
 15 16  2  0  0  0  0
 15 17  1  0  0  0  0
 17 18  1  0  0  0  0
 15 19  2  0  0  0  0
 19 20  1  0  0  0  0
  1 21  1  0  0  0  0
  1 22  1  0  0  0  0
  1 23  1  0  0  0  0
  2 24  1  0  0  0  0
  2 25  1  0  0  0  0
  6 26  1  0  0  0  0
  6 27  1  0  0  0  0
 12 28  1  0  0  0  0
 12 29  1  0  0  0  0
 13 30  1  0  0  0  0
 13 31  1  0  0  0  0
 13 32  1  0  0  0  0
 18 33  1  0  0  0  0
 18 34  1  0  0  0  0
 18 35  1  0  0  0  0
 20 36  1  0  0  0  0
 20 37  1  0  0  0  0
 20 38  1  0  0  0  0
M  END
