 xtb: 6.7.1 (edcfbbe)
          04092505203D

 41 40  0     0  0            999 V2000
    2.5912   -2.9656   -1.4157 C   0  0  0  0  0  0  0  0  0  0  0  0
    3.4241   -1.7799   -1.8557 C   0  0  0  0  0  0  0  0  0  0  0  0
    3.5863   -0.7941   -0.8103 O   0  0  0  0  0  0  0  0  0  0  0  0
    2.4263    0.0162   -0.0900 P   0  0  0  0  0  0  0  0  0  0  0  0
    3.1766    1.5972    0.7774 S   0  0  0  0  0  0  0  0  0  0  0  0
    1.6797   -1.0101    0.8825 O   0  0  0  0  0  0  0  0  0  0  0  0
    1.9658   -1.1185    2.2913 C   0  0  0  0  0  0  0  0  0  0  0  0
    0.9495   -0.3530    3.1148 C   0  0  0  0  0  0  0  0  0  0  0  0
    0.9760    0.2832   -1.6025 S   0  0  0  0  0  0  0  0  0  0  0  0
    0.2528    1.8147   -0.9620 C   0  0  0  0  0  0  0  0  0  0  0  0
   -0.5918    1.6086    0.6271 S   0  0  0  0  0  0  0  0  0  0  0  0
   -2.0316    0.2101   -0.0331 P   0  0  0  0  0  0  0  0  0  0  0  0
   -2.7447    0.4450   -1.8483 S   0  0  0  0  0  0  0  0  0  0  0  0
   -3.1187    0.1970    1.1261 O   0  0  0  0  0  0  0  0  0  0  0  0
   -4.2663    1.0628    1.1216 C   0  0  0  0  0  0  0  0  0  0  0  0
   -3.8882    2.5141    1.3377 C   0  0  0  0  0  0  0  0  0  0  0  0
   -1.2564   -1.1398    0.2580 O   0  0  0  0  0  0  0  0  0  0  0  0
   -1.5611   -2.3676   -0.4317 C   0  0  0  0  0  0  0  0  0  0  0  0
   -2.9317   -2.8955   -0.0632 C   0  0  0  0  0  0  0  0  0  0  0  0
    2.5575   -3.6934   -2.2204 H   0  0  0  0  0  0  0  0  0  0  0  0
    3.0258   -3.4260   -0.5321 H   0  0  0  0  0  0  0  0  0  0  0  0
    1.5773   -2.6432   -1.1866 H   0  0  0  0  0  0  0  0  0  0  0  0
    2.9733   -1.2885   -2.7220 H   0  0  0  0  0  0  0  0  0  0  0  0
    4.4502   -2.0699   -2.0876 H   0  0  0  0  0  0  0  0  0  0  0  0
    1.9190   -2.1891    2.4993 H   0  0  0  0  0  0  0  0  0  0  0  0
    2.9776   -0.7488    2.4832 H   0  0  0  0  0  0  0  0  0  0  0  0
   -0.0583   -0.6487    2.8328 H   0  0  0  0  0  0  0  0  0  0  0  0
    1.1085   -0.5668    4.1669 H   0  0  0  0  0  0  0  0  0  0  0  0
    1.0587    0.7166    2.9484 H   0  0  0  0  0  0  0  0  0  0  0  0
   -0.4577    2.1493   -1.7172 H   0  0  0  0  0  0  0  0  0  0  0  0
    1.0399    2.5501   -0.7980 H   0  0  0  0  0  0  0  0  0  0  0  0
   -4.7881    0.9402    0.1670 H   0  0  0  0  0  0  0  0  0  0  0  0
   -4.8850    0.6825    1.9355 H   0  0  0  0  0  0  0  0  0  0  0  0
   -3.3278    2.8858    0.4808 H   0  0  0  0  0  0  0  0  0  0  0  0
   -4.7897    3.1074    1.4522 H   0  0  0  0  0  0  0  0  0  0  0  0
   -3.2723    2.6160    2.2277 H   0  0  0  0  0  0  0  0  0  0  0  0
   -1.4914   -2.1861   -1.5094 H   0  0  0  0  0  0  0  0  0  0  0  0
   -0.7679   -3.0477   -0.1171 H   0  0  0  0  0  0  0  0  0  0  0  0
   -3.0825   -3.8638   -0.5300 H   0  0  0  0  0  0  0  0  0  0  0  0
   -3.0201   -2.9940    1.0156 H   0  0  0  0  0  0  0  0  0  0  0  0
   -3.6990   -2.2083   -0.4181 H   0  0  0  0  0  0  0  0  0  0  0  0
  1  2  1  0  0  0  0
  2  3  1  0  0  0  0
  3  4  2  0  0  0  0
  4  5  2  0  0  0  0
  4  6  1  0  0  0  0
  6  7  1  0  0  0  0
  7  8  1  0  0  0  0
  4  9  1  0  0  0  0
  9 10  1  0  0  0  0
 10 11  1  0  0  0  0
 11 12  1  0  0  0  0
 12 13  2  0  0  0  0
 12 14  2  0  0  0  0
 14 15  1  0  0  0  0
 15 16  1  0  0  0  0
 12 17  2  0  0  0  0
 17 18  1  0  0  0  0
 18 19  1  0  0  0  0
  1 20  1  0  0  0  0
  1 21  1  0  0  0  0
  1 22  1  0  0  0  0
  2 23  1  0  0  0  0
  2 24  1  0  0  0  0
  7 25  1  0  0  0  0
  7 26  1  0  0  0  0
  8 27  1  0  0  0  0
  8 28  1  0  0  0  0
  8 29  1  0  0  0  0
 10 30  1  0  0  0  0
 10 31  1  0  0  0  0
 15 32  1  0  0  0  0
 15 33  1  0  0  0  0
 16 34  1  0  0  0  0
 16 35  1  0  0  0  0
 16 36  1  0  0  0  0
 18 37  1  0  0  0  0
 18 38  1  0  0  0  0
 19 39  1  0  0  0  0
 19 40  1  0  0  0  0
 19 41  1  0  0  0  0
M  END
