 xtb: 6.7.1 (edcfbbe)
          04092509473D

 38 37  0     0  0            999 V2000
    1.3411   -3.5431   -2.2739 C   0  0  0  0  0  0  0  0  0  0  0  0
    2.5781   -2.6594   -2.2835 C   0  0  0  0  0  0  0  0  0  0  0  0
    2.3871   -1.5054   -1.4431 O   0  0  0  0  0  0  0  0  0  0  0  0
    2.6549   -1.6164   -0.1567 C   0  0  0  0  0  0  0  0  0  0  0  0
    3.1096   -2.6053    0.3705 O   0  0  0  0  0  0  0  0  0  0  0  0
    2.3444   -0.3322    0.5954 C   0  0  0  0  0  0  0  0  0  0  0  0
    0.9727    0.2104    0.2007 C   0  0  0  0  0  0  0  0  0  0  0  0
    0.9422    0.4200   -0.8723 H   0  0  0  0  0  0  0  0  0  0  0  0
    0.6452    1.4884    0.9553 C   0  0  0  0  0  0  0  0  0  0  0  0
   -0.2459    1.5741    1.7734 O   0  0  0  0  0  0  0  0  0  0  0  0
    1.4532    2.4564    0.6080 O   0  0  0  0  0  0  0  0  0  0  0  0
    1.2848    3.7520    1.2257 C   0  0  0  0  0  0  0  0  0  0  0  0
    2.1837    4.7374    0.5043 C   0  0  0  0  0  0  0  0  0  0  0  0
   -0.2924   -1.0537    0.5766 S   0  0  0  0  0  0  0  0  0  0  0  0
   -2.0141    0.0292   -0.0178 P   0  0  0  0  0  0  0  0  0  0  0  0
   -1.7278    1.4661   -1.3110 S   0  0  0  0  0  0  0  0  0  0  0  0
   -2.9754   -1.1516   -0.5259 O   0  0  0  0  0  0  0  0  0  0  0  0
   -2.6973   -1.9108   -1.7076 C   0  0  0  0  0  0  0  0  0  0  0  0
   -2.8253    0.5005    1.2502 O   0  0  0  0  0  0  0  0  0  0  0  0
   -3.0481   -0.3585    2.3851 C   0  0  0  0  0  0  0  0  0  0  0  0
    1.4986   -4.3890   -2.9347 H   0  0  0  0  0  0  0  0  0  0  0  0
    1.1529   -3.9087   -1.2667 H   0  0  0  0  0  0  0  0  0  0  0  0
    0.4768   -2.9790   -2.6145 H   0  0  0  0  0  0  0  0  0  0  0  0
    2.7655   -2.2474   -3.2752 H   0  0  0  0  0  0  0  0  0  0  0  0
    3.4521   -3.2106   -1.9258 H   0  0  0  0  0  0  0  0  0  0  0  0
    3.1028    0.4121    0.3467 H   0  0  0  0  0  0  0  0  0  0  0  0
    2.3839   -0.5516    1.6632 H   0  0  0  0  0  0  0  0  0  0  0  0
    0.2297    4.0334    1.1550 H   0  0  0  0  0  0  0  0  0  0  0  0
    1.5518    3.6592    2.2825 H   0  0  0  0  0  0  0  0  0  0  0  0
    2.0789    5.7156    0.9621 H   0  0  0  0  0  0  0  0  0  0  0  0
    3.2198    4.4202    0.5732 H   0  0  0  0  0  0  0  0  0  0  0  0
    1.9036    4.8021   -0.5429 H   0  0  0  0  0  0  0  0  0  0  0  0
   -1.8331   -2.5543   -1.5411 H   0  0  0  0  0  0  0  0  0  0  0  0
   -2.5126   -1.2422   -2.5494 H   0  0  0  0  0  0  0  0  0  0  0  0
   -3.5874   -2.5094   -1.8867 H   0  0  0  0  0  0  0  0  0  0  0  0
   -2.1005   -0.5386    2.8924 H   0  0  0  0  0  0  0  0  0  0  0  0
   -3.4933   -1.2986    2.0642 H   0  0  0  0  0  0  0  0  0  0  0  0
   -3.7264    0.1936    3.0299 H   0  0  0  0  0  0  0  0  0  0  0  0
  1  2  1  0  0  0  0
  2  3  1  0  0  0  0
  3  4  1  0  0  0  0
  4  5  2  0  0  0  0
  4  6  1  0  0  0  0
  6  7  1  0  0  0  0
  7  8  1  0  0  0  0
  7  9  1  0  0  0  0
  9 10  2  0  0  0  0
  9 11  4  0  0  0  0
 11 12  1  0  0  0  0
 12 13  1  0  0  0  0
  7 14  1  0  0  0  0
 14 15  1  0  0  0  0
 15 16  2  0  0  0  0
 15 17  1  0  0  0  0
 17 18  1  0  0  0  0
 15 19  2  0  0  0  0
 19 20  1  0  0  0  0
  1 21  1  0  0  0  0
  1 22  1  0  0  0  0
  1 23  1  0  0  0  0
  2 24  1  0  0  0  0
  2 25  1  0  0  0  0
  6 26  1  0  0  0  0
  6 27  1  0  0  0  0
 12 28  1  0  0  0  0
 12 29  1  0  0  0  0
 13 30  1  0  0  0  0
 13 31  1  0  0  0  0
 13 32  1  0  0  0  0
 18 33  1  0  0  0  0
 18 34  1  0  0  0  0
 18 35  1  0  0  0  0
 20 36  1  0  0  0  0
 20 37  1  0  0  0  0
 20 38  1  0  0  0  0
M  END
