41
 xtb: 6.7.1 (edcfbbe)
C            3.19446306427604       -0.11409006248202       -2.88779159441858
C            1.79493643291368       -0.13942223346621       -2.32325146169389
O            1.75359715266299       -0.76545011790192       -0.99047186375605
P            2.27304108494553        0.01918458181166        0.31145805706767
S            1.84555835247346        1.91634163391987        0.41717830281480
O            3.82973725081859       -0.39137192333951        0.35217357777909
C            4.86601653809360        0.45195389657077        0.96666601952912
C            4.86662599538723        0.33799950629256        2.47033220618318
S            1.53581596097074       -1.21446974178488        1.86955679395716
C           -0.19477284325067       -0.63294271253080        1.99196953914229
S           -1.36024944636314       -1.49826700227027        0.84148180014317
P           -2.38678249493380        0.14406906073397       -0.00346621462208
S           -2.90171253867158        1.57839982617878        1.21159826382774
O           -3.56915098574223       -0.62358354437201       -0.78258120178936
C           -4.94164195456006       -0.71609210772356       -0.26351235831714
C           -5.07679896000876       -1.78663028284649        0.78991116183398
O           -1.41242123093125        0.55295974664129       -1.21753577833752
C           -1.56672895952501        1.84596191013974       -1.90656287362635
C           -2.81319786175508        1.89165044393832       -2.75632383047856
H            3.63336491378532       -1.11581792174447       -2.89612311398520
H            3.14627952602499        0.25059098976451       -3.91912183637008
H            3.84664299490461        0.55711138712818       -2.32085873735701
H            1.12676728799308       -0.76418207809497       -2.91901660470963
H            1.36993350620245        0.86527981209067       -2.24362384470020
H            5.79279609372397        0.07089862560428        0.53322482064213
H            4.71186435910673        1.48202491141730        0.63240968821357
H            3.95306315003792        0.75327701449346        2.90558160812278
H            4.97279155986216       -0.70408033562052        2.78572391457906
H            5.71768555136545        0.90499051451292        2.86186018274510
H           -0.23722499266805        0.44908313332145        1.83015729081625
H           -0.50768935607613       -0.84986620151763        3.01576069627057
H           -5.23251925100354        0.26893133120763        0.11302356428469
H           -5.53383793848737       -0.94794926484521       -1.15101926008178
H           -4.51548293245477       -1.53545013522357        1.69436817184301
H           -6.13428017795224       -1.87676792156717        1.05957903846344
H           -4.73374349072746       -2.75453819593241        0.41309305083645
H           -1.55281440317455        2.63791232862172       -1.15160769143000
H           -0.66350013338294        1.91842247967451       -2.51507127083343
H           -2.81029681410910        2.82681436847033       -3.32597570627137
H           -2.83581864636490        1.05751284545111       -3.46343400988859
H           -3.72206008181035        1.86871054887665       -2.14742510152935
