41
 xtb: 6.7.1 (edcfbbe)
C            4.41444700784395       -1.68944896972823       -2.20047098942466
C            4.47844527367578       -1.53071169295695       -0.70180936125158
O            3.14148766295094       -1.43844405095626       -0.09823519716646
P            2.25452031933482       -0.09345916724222       -0.12027876428434
S            3.21796334435557        1.59847162499526       -0.15064719396244
O            1.26885031835291       -0.35735646436436        1.11749337610579
C            1.69100741164955       -0.09918456017786        2.50138076193677
C            0.47497487316601       -0.29749189349000        3.37082780589610
S            0.94546442777136       -0.48077272707196       -1.73999423382438
C            0.21419486071434        1.17912540318746       -2.02783169856930
S           -0.77333024253879        1.94346095564568       -0.68525610897649
P           -2.34558580738924        0.52189754893745       -0.47298597110512
S           -3.14551544195794       -0.11805204700066       -2.12451275221454
O           -3.37112128620490        1.36151695471169        0.43252375983314
C           -3.02439965837074        1.78201649437770        1.80917321003092
C           -3.74599250176520        0.91487809794250        2.80763384850160
O           -1.73933229903490       -0.57949781075354        0.52446190466685
C           -1.78034906038819       -2.02691568079091        0.29717878790154
C           -2.92730247550125       -2.64033087127310        1.06055935293737
H            4.03532268923123       -0.78640325105315       -2.68711412357805
H            5.42708063672146       -1.87680148753239       -2.57256862548040
H            3.78336396700414       -2.53852130709455       -2.47883802500327
H            5.04970208146721       -0.64554938346236       -0.40693443569016
H            4.91205195797105       -2.41093182013304       -0.22306109333297
H            2.49324587556983       -0.80099331218360        2.75118928397361
H            2.07138085886167        0.92508568169856        2.56201226989336
H            0.07707488777662       -1.31087140597976        3.26280062341066
H            0.75810185821853       -0.14626218638288        4.41700340240015
H           -0.30898869342424        0.42239704281607        3.11654594485748
H           -0.41001754314722        1.05955420699760       -2.91834163668136
H            1.01097394984217        1.89827002766742       -2.23905294414855
H           -1.93946480920308        1.73826248191414        1.94622427679903
H           -3.34344410466292        2.82482558007367        1.86640046268191
H           -4.82678633521220        0.94843335684967        2.64372916246535
H           -3.40652101735903       -0.12256125798947        2.74972372241950
H           -3.53871365241658        1.29185157545544        3.81466440182718
H           -1.85938831965226       -2.21418821443517       -0.77700515206040
H           -0.81259103061748       -2.38938021449122        0.65181336113591
H           -3.88718888262358       -2.24947353312862        0.70938376247857
H           -2.91630824709219       -3.72388996373650        0.90218536151424
H           -2.83376220035990       -2.44852261102006        2.13317342358037
