  22
 
 C         -4.1305022085       -0.2517181547       -0.0344972006
 C         -2.8046449698        0.5002273797       -0.0335496060
 C         -1.6109422617       -0.4505964084        0.0167078772
 C         -0.2833805419        0.3021616266        0.0191872155
 C          0.9116653347       -0.6458570152        0.0711618691
 C          2.2344034810        0.0752672372        0.1379751858
 O          2.3233130541        1.2715694025        0.3318046001
 C          3.4399359339       -0.7981766034       -0.0653208302
 H         -4.9645041245        0.4452220845       -0.0611335061
 H         -4.1987304159       -0.9028962107       -0.9030172872
 H         -4.2221761484       -0.8632290158        0.8603378778
 H         -2.7667933536        1.1701345799        0.8283917490
 H         -2.7358115147        1.1171629564       -0.9323509370
 H         -1.6477755412       -1.1184509475       -0.8469528955
 H         -1.6808350088       -1.0657148507        0.9167400115
 H         -0.2089457630        0.9224435474       -0.8769795163
 H         -0.2397914672        0.9751947463        0.8783104193
 H          0.9161595199       -1.3092131941       -0.7952238245
 H          0.8431938723       -1.2765723616        0.9614108568
 H          3.5390584679       -0.9978884635       -1.1309030241
 H          4.3368464963       -0.2884920412        0.2764244900
 H          3.3203315145       -1.7469596871        0.4481535964
          22
        -26.19677181
 C         -4.1356251204        0.2420221122       -0.0282457503
 C         -2.8092717606       -0.4986598083        0.0982659059
 C         -1.6164805430        0.4416677737       -0.0575881861
 C         -0.2872332807       -0.2986098966        0.0616225676
 C          0.9053894120        0.6428744133       -0.0821793694
 C          2.2322380346       -0.0714643868       -0.0245280785
 O          2.3306991489       -1.2823610313       -0.0597440096
 C          3.4292622621        0.8296723333        0.0884382161
 H         -4.2143176792        1.0147143424        0.7331774472
 H         -4.2166049098        0.7138001754       -1.0049433347
 H         -4.9695340128       -0.4450466761        0.0916764190
 H         -2.7540835445       -1.2790865858       -0.6640009803
 H         -2.7572061264       -0.9876637770        1.0736217679
 H         -1.6693619722        1.2175974532        0.7095145598
 H         -1.6720735231        0.9323265126       -1.0320251365
 H         -0.2302947452       -0.8024575195        1.0293190852
 H         -0.2229998055       -1.0729152041       -0.7061550893
 H          0.8858638188        1.4111567970        0.6924249771
 H          0.8566077781        1.1546773680       -1.0469885868
 H          3.3184275452        1.7011046258       -0.5489941280
 H          3.5037910078        1.1699156709        1.1196136130
 H          4.3352209531        0.2850865287       -0.1626499733
