 xtb: 6.7.1 (edcfbbe)
          04092507313D

 38 37  0     0  0            999 V2000
    3.5101   -1.1429    1.9898 C   0  0  0  0  0  0  0  0  0  0  0  0
    2.7590   -2.0580    1.0366 C   0  0  0  0  0  0  0  0  0  0  0  0
    2.5420   -1.4143   -0.2358 O   0  0  0  0  0  0  0  0  0  0  0  0
    1.5478   -0.5803   -0.3649 C   0  0  0  0  0  0  0  0  0  0  0  0
    0.7708   -0.2726    0.5294 O   0  0  0  0  0  0  0  0  0  0  0  0
    1.4281    0.0033   -1.7495 C   0  0  0  0  0  0  0  0  0  0  0  0
    0.2980    1.0212   -1.7383 C   0  0  0  0  0  0  0  0  0  0  0  0
    0.2886    1.6064   -2.6615 H   0  0  0  0  0  0  0  0  0  0  0  0
    0.4040    1.9731   -0.5541 C   0  0  0  0  0  0  0  0  0  0  0  0
   -0.5434    2.3960    0.0666 O   0  0  0  0  0  0  0  0  0  0  0  0
    1.6578    2.3188   -0.3407 O   0  0  0  0  0  0  0  0  0  0  0  0
    1.9391    3.2473    0.7264 C   0  0  0  0  0  0  0  0  0  0  0  0
    3.2163    3.9912    0.3871 C   0  0  0  0  0  0  0  0  0  0  0  0
   -1.3612    0.2564   -1.7368 S   0  0  0  0  0  0  0  0  0  0  0  0
   -1.7290   -0.8037    0.0646 P   0  0  0  0  0  0  0  0  0  0  0  0
   -0.9591   -2.5862    0.4082 S   0  0  0  0  0  0  0  0  0  0  0  0
   -1.8780    0.1964    1.2814 O   0  0  0  0  0  0  0  0  0  0  0  0
   -1.1756    0.1205    2.5184 C   0  0  0  0  0  0  0  0  0  0  0  0
   -3.3092   -0.9565   -0.1781 O   0  0  0  0  0  0  0  0  0  0  0  0
   -3.8406   -1.8472   -1.1616 C   0  0  0  0  0  0  0  0  0  0  0  0
    2.9103   -0.2641    2.2169 H   0  0  0  0  0  0  0  0  0  0  0  0
    3.7107   -1.6769    2.9125 H   0  0  0  0  0  0  0  0  0  0  0  0
    4.4497   -0.8287    1.5442 H   0  0  0  0  0  0  0  0  0  0  0  0
    1.7894   -2.3525    1.4481 H   0  0  0  0  0  0  0  0  0  0  0  0
    3.3423   -2.9442    0.7888 H   0  0  0  0  0  0  0  0  0  0  0  0
    1.2250   -0.7961   -2.4639 H   0  0  0  0  0  0  0  0  0  0  0  0
    2.3740    0.4758   -2.0175 H   0  0  0  0  0  0  0  0  0  0  0  0
    1.0845    3.9223    0.8328 H   0  0  0  0  0  0  0  0  0  0  0  0
    2.0442    2.6683    1.6496 H   0  0  0  0  0  0  0  0  0  0  0  0
    3.4497    4.6804    1.1917 H   0  0  0  0  0  0  0  0  0  0  0  0
    4.0362    3.2900    0.2668 H   0  0  0  0  0  0  0  0  0  0  0  0
    3.0905    4.5492   -0.5360 H   0  0  0  0  0  0  0  0  0  0  0  0
   -1.9101    0.3089    3.2986 H   0  0  0  0  0  0  0  0  0  0  0  0
   -0.4001    0.8851    2.5264 H   0  0  0  0  0  0  0  0  0  0  0  0
   -0.7270   -0.8666    2.6448 H   0  0  0  0  0  0  0  0  0  0  0  0
   -4.8920   -1.9654   -0.9115 H   0  0  0  0  0  0  0  0  0  0  0  0
   -3.3281   -2.8104   -1.1103 H   0  0  0  0  0  0  0  0  0  0  0  0
   -3.7287   -1.4180   -2.1572 H   0  0  0  0  0  0  0  0  0  0  0  0
  1  2  1  0  0  0  0
  2  3  1  0  0  0  0
  3  4  4  0  0  0  0
  4  5  2  0  0  0  0
  4  6  1  0  0  0  0
  6  7  1  0  0  0  0
  7  8  1  0  0  0  0
  7  9  1  0  0  0  0
  9 10  2  0  0  0  0
  9 11  1  0  0  0  0
 11 12  1  0  0  0  0
 12 13  1  0  0  0  0
  7 14  1  0  0  0  0
 14 15  1  0  0  0  0
 15 16  2  0  0  0  0
 15 17  2  0  0  0  0
 17 18  1  0  0  0  0
 15 19  1  0  0  0  0
 19 20  1  0  0  0  0
  1 21  1  0  0  0  0
  1 22  1  0  0  0  0
  1 23  1  0  0  0  0
  2 24  1  0  0  0  0
  2 25  1  0  0  0  0
  6 26  1  0  0  0  0
  6 27  1  0  0  0  0
 12 28  1  0  0  0  0
 12 29  1  0  0  0  0
 13 30  1  0  0  0  0
 13 31  1  0  0  0  0
 13 32  1  0  0  0  0
 18 33  1  0  0  0  0
 18 34  1  0  0  0  0
 18 35  1  0  0  0  0
 20 36  1  0  0  0  0
 20 37  1  0  0  0  0
 20 38  1  0  0  0  0
M  END
