 xtb: 6.7.1 (edcfbbe)
          04092505203D

 41 40  0     0  0            999 V2000
    3.6494   -1.5706   -2.5000 C   0  0  0  0  0  0  0  0  0  0  0  0
    4.0127   -0.1807   -2.0206 C   0  0  0  0  0  0  0  0  0  0  0  0
    3.5875    0.0591   -0.6660 O   0  0  0  0  0  0  0  0  0  0  0  0
    2.0565    0.0936   -0.2428 P   0  0  0  0  0  0  0  0  0  0  0  0
    0.8933    1.0030   -1.5274 S   0  0  0  0  0  0  0  0  0  0  0  0
    2.0752    0.8342    1.1459 O   0  0  0  0  0  0  0  0  0  0  0  0
    2.8560    0.4297    2.2972 C   0  0  0  0  0  0  0  0  0  0  0  0
    4.1957    1.1357    2.3195 C   0  0  0  0  0  0  0  0  0  0  0  0
    1.6774   -1.9504    0.2184 S   0  0  0  0  0  0  0  0  0  0  0  0
   -0.0186   -1.8310    0.8395 C   0  0  0  0  0  0  0  0  0  0  0  0
   -1.2531   -1.5294   -0.4674 S   0  0  0  0  0  0  0  0  0  0  0  0
   -2.0239    0.2997    0.2210 P   0  0  0  0  0  0  0  0  0  0  0  0
   -1.0924    1.2483    1.6582 S   0  0  0  0  0  0  0  0  0  0  0  0
   -3.4614   -0.2597    0.6622 O   0  0  0  0  0  0  0  0  0  0  0  0
   -4.4309    0.6015    1.2911 C   0  0  0  0  0  0  0  0  0  0  0  0
   -4.4628    0.3604    2.7877 C   0  0  0  0  0  0  0  0  0  0  0  0
   -2.2816    1.2709   -1.0035 O   0  0  0  0  0  0  0  0  0  0  0  0
   -2.5280    0.8794   -2.3740 C   0  0  0  0  0  0  0  0  0  0  0  0
   -3.7222   -0.0399   -2.5193 C   0  0  0  0  0  0  0  0  0  0  0  0
    4.0054   -2.3199   -1.7973 H   0  0  0  0  0  0  0  0  0  0  0  0
    2.5679   -1.6607   -2.5927 H   0  0  0  0  0  0  0  0  0  0  0  0
    4.1001   -1.7427   -3.4721 H   0  0  0  0  0  0  0  0  0  0  0  0
    3.5568    0.5793   -2.6623 H   0  0  0  0  0  0  0  0  0  0  0  0
    5.0931   -0.0356   -1.9819 H   0  0  0  0  0  0  0  0  0  0  0  0
    2.2361    0.7177    3.1490 H   0  0  0  0  0  0  0  0  0  0  0  0
    2.9832   -0.6565    2.2761 H   0  0  0  0  0  0  0  0  0  0  0  0
    4.0493    2.2119    2.2827 H   0  0  0  0  0  0  0  0  0  0  0  0
    4.7157    0.8756    3.2362 H   0  0  0  0  0  0  0  0  0  0  0  0
    4.7961    0.8327    1.4660 H   0  0  0  0  0  0  0  0  0  0  0  0
   -0.0904   -1.0230    1.5735 H   0  0  0  0  0  0  0  0  0  0  0  0
   -0.2363   -2.7971    1.2868 H   0  0  0  0  0  0  0  0  0  0  0  0
   -4.1883    1.6454    1.0654 H   0  0  0  0  0  0  0  0  0  0  0  0
   -5.3845    0.3398    0.8279 H   0  0  0  0  0  0  0  0  0  0  0  0
   -5.2476    0.9640    3.2322 H   0  0  0  0  0  0  0  0  0  0  0  0
   -4.6549   -0.6897    2.9881 H   0  0  0  0  0  0  0  0  0  0  0  0
   -3.5078    0.6349    3.2305 H   0  0  0  0  0  0  0  0  0  0  0  0
   -2.6854    1.8343   -2.8783 H   0  0  0  0  0  0  0  0  0  0  0  0
   -1.6157    0.4154   -2.7584 H   0  0  0  0  0  0  0  0  0  0  0  0
   -3.5453   -0.9782   -1.9954 H   0  0  0  0  0  0  0  0  0  0  0  0
   -4.6145    0.4311   -2.1140 H   0  0  0  0  0  0  0  0  0  0  0  0
   -3.8753   -0.2493   -3.5733 H   0  0  0  0  0  0  0  0  0  0  0  0
  1  2  1  0  0  0  0
  2  3  1  0  0  0  0
  3  4  2  0  0  0  0
  4  5  2  0  0  0  0
  4  6  2  0  0  0  0
  6  7  1  0  0  0  0
  7  8  1  0  0  0  0
  4  9  1  0  0  0  0
  9 10  1  0  0  0  0
 10 11  1  0  0  0  0
 11 12  1  0  0  0  0
 12 13  2  0  0  0  0
 12 14  1  0  0  0  0
 14 15  1  0  0  0  0
 15 16  1  0  0  0  0
 12 17  2  0  0  0  0
 17 18  1  0  0  0  0
 18 19  1  0  0  0  0
  1 20  1  0  0  0  0
  1 21  1  0  0  0  0
  1 22  1  0  0  0  0
  2 23  1  0  0  0  0
  2 24  1  0  0  0  0
  7 25  1  0  0  0  0
  7 26  1  0  0  0  0
  8 27  1  0  0  0  0
  8 28  1  0  0  0  0
  8 29  1  0  0  0  0
 10 30  1  0  0  0  0
 10 31  1  0  0  0  0
 15 32  1  0  0  0  0
 15 33  1  0  0  0  0
 16 34  1  0  0  0  0
 16 35  1  0  0  0  0
 16 36  1  0  0  0  0
 18 37  1  0  0  0  0
 18 38  1  0  0  0  0
 19 39  1  0  0  0  0
 19 40  1  0  0  0  0
 19 41  1  0  0  0  0
M  END
