 xtb: 6.7.1 (edcfbbe)
          04032520013D

 19 19  0     0  0            999 V2000
    2.1544   -1.2014   -0.1141 C   0  0  0  0  0  0  0  0  0  0  0  0
    1.3896    0.0987   -0.0316 C   0  0  0  0  0  0  0  0  0  0  0  0
    1.9521    1.1937   -0.1360 O   0  0  0  0  0  0  0  0  0  0  0  0
    0.0711    0.0081    0.1601 N   0  0  0  0  0  0  0  0  0  0  0  0
   -0.7258   -1.1889    0.3218 C   0  0  0  0  0  0  0  0  0  0  0  0
   -2.1057   -0.8118   -0.2345 C   0  0  0  0  0  0  0  0  0  0  0  0
   -2.1467    0.7273   -0.2416 C   0  0  0  0  0  0  0  0  0  0  0  0
   -0.7806    1.1753    0.2863 C   0  0  0  0  0  0  0  0  0  0  0  0
    3.2122   -0.9710   -0.2030 H   0  0  0  0  0  0  0  0  0  0  0  0
    1.8407   -1.7667   -0.9882 H   0  0  0  0  0  0  0  0  0  0  0  0
    1.9859   -1.7982    0.7779 H   0  0  0  0  0  0  0  0  0  0  0  0
   -0.2869   -2.0289   -0.2119 H   0  0  0  0  0  0  0  0  0  0  0  0
   -0.7905   -1.4408    1.3863 H   0  0  0  0  0  0  0  0  0  0  0  0
   -2.2201   -1.1965   -1.2461 H   0  0  0  0  0  0  0  0  0  0  0  0
   -2.8986   -1.2331    0.3785 H   0  0  0  0  0  0  0  0  0  0  0  0
   -2.3029    1.1005   -1.2519 H   0  0  0  0  0  0  0  0  0  0  0  0
   -2.9453    1.1129    0.3874 H   0  0  0  0  0  0  0  0  0  0  0  0
   -0.3402    2.0007   -0.2743 H   0  0  0  0  0  0  0  0  0  0  0  0
   -0.8371    1.4698    1.3402 H   0  0  0  0  0  0  0  0  0  0  0  0
  1  2  1  0  0  0  0
  2  3  2  0  0  0  0
  2  4  4  0  0  0  0
  4  5  1  0  0  0  0
  5  6  1  0  0  0  0
  6  7  1  0  0  0  0
  4  8  1  0  0  0  0
  7  8  1  0  0  0  0
  1  9  1  0  0  0  0
  1 10  1  0  0  0  0
  1 11  1  0  0  0  0
  5 12  1  0  0  0  0
  5 13  1  0  0  0  0
  6 14  1  0  0  0  0
  6 15  1  0  0  0  0
  7 16  1  0  0  0  0
  7 17  1  0  0  0  0
  8 18  1  0  0  0  0
  8 19  1  0  0  0  0
M  END
