38
 xtb: 6.7.1 (edcfbbe)
C            4.80070105923162       -3.83636123549030       -2.10508661694556
C            4.06335941832502       -3.08243724593073       -1.02966339541768
O            3.15718480299596       -2.14639304571773       -1.70433384018212
C            2.42087166782854       -1.35957922459449       -0.91380905236923
O            2.45029542125834       -1.39260490294652        0.30495950755313
C            1.58045824845293       -0.40431222573440       -1.72126588987007
C            0.53946454217774        0.33207491745788       -0.88271234725723
H            0.06019754968136        1.08453067718346       -1.52127763145797
C            1.19635740920816        1.11251162968951        0.24868154953829
O            2.16949487179287        1.81566197073928        0.03655603582125
O            0.57449507236636        0.99995884640479        1.41434363209065
C            1.05529576087140        1.83095372478663        2.52335065190801
C            0.44562258653700        3.21029817952305        2.44809749117673
S           -0.78982686960824       -0.85463281157493       -0.38474983957650
P           -2.38188982056603        0.45205868819622        0.12506565850683
S           -2.43661427956917        2.14303943799619       -0.82955291738903
O           -3.63146869783030       -0.55586316717410       -0.03713215361439
C           -4.13812352870961       -0.88482655352588       -1.36056233829797
O           -2.39618218971782        0.68090707067383        1.71295603644095
C           -2.21921516671113       -0.42444020326057        2.64680638589029
H            5.48777786144932       -4.54478219650971       -1.63326828791991
H            4.10783430966659       -4.39864406649399       -2.73728977729203
H            5.38485224430601       -3.15652106854458       -2.73163942815660
H            4.73941520950996       -2.50317305073299       -0.39442431396324
H            3.46058095533776       -3.74423444902945       -0.40122836729683
H            1.11117182678230       -0.93089927242043       -2.55624837525656
H            2.26153679872095        0.33350302071964       -2.16158219683776
H            0.72292888946909        1.28980200798639        3.41114433516439
H            2.14722739117323        1.85244595565017        2.49554263762066
H           -0.64649919698490        3.15103122709972        2.46590775780058
H            0.77422322725731        3.79010915235259        3.31625264222902
H            0.76090367182859        3.73716206380542        1.54327844712451
H           -4.53698057348026        0.01305733656879       -1.83891250122170
H           -4.93425695816575       -1.61077729081044       -1.19709545631339
H           -3.34946566104897       -1.32614351730588       -1.97601096575691
H           -2.30432805876787        0.01974451157429        3.63856157958529
H           -1.22938491625752       -0.86898010260037        2.51760635800673
H           -3.00032498858611       -1.17491025065754        2.50223290432809
