 xtb: 6.7.1 (edcfbbe)
          04092505213D

 41 40  0     0  0            999 V2000
    1.2732   -1.9356   -2.0683 C   0  0  0  0  0  0  0  0  0  0  0  0
    2.4422   -0.9752   -2.1285 C   0  0  0  0  0  0  0  0  0  0  0  0
    2.4080    0.0083   -1.0680 O   0  0  0  0  0  0  0  0  0  0  0  0
    2.5385   -0.2783    0.4808 P   0  0  0  0  0  0  0  0  0  0  0  0
    3.2127    1.2927    1.4364 S   0  0  0  0  0  0  0  0  0  0  0  0
    3.4665   -1.5674    0.5082 O   0  0  0  0  0  0  0  0  0  0  0  0
    4.2064   -1.9630    1.6790 C   0  0  0  0  0  0  0  0  0  0  0  0
    3.3024   -2.3792    2.8206 C   0  0  0  0  0  0  0  0  0  0  0  0
    0.6425   -0.9695    1.1619 S   0  0  0  0  0  0  0  0  0  0  0  0
   -0.0803    0.6611    1.4265 C   0  0  0  0  0  0  0  0  0  0  0  0
   -0.2740    1.6239   -0.1121 S   0  0  0  0  0  0  0  0  0  0  0  0
   -2.1357    0.8437   -0.7206 P   0  0  0  0  0  0  0  0  0  0  0  0
   -2.8274    1.5122   -2.4269 S   0  0  0  0  0  0  0  0  0  0  0  0
   -3.1081    1.0500    0.5330 O   0  0  0  0  0  0  0  0  0  0  0  0
   -3.9869    2.1856    0.6466 C   0  0  0  0  0  0  0  0  0  0  0  0
   -5.4000    1.7890    0.2658 C   0  0  0  0  0  0  0  0  0  0  0  0
   -1.8307   -0.7043   -0.6304 O   0  0  0  0  0  0  0  0  0  0  0  0
   -2.8836   -1.6776   -0.8464 C   0  0  0  0  0  0  0  0  0  0  0  0
   -2.2597   -3.0534   -0.7465 C   0  0  0  0  0  0  0  0  0  0  0  0
    1.3395   -2.5589   -1.1788 H   0  0  0  0  0  0  0  0  0  0  0  0
    0.3352   -1.3842   -2.0441 H   0  0  0  0  0  0  0  0  0  0  0  0
    1.2910   -2.5685   -2.9505 H   0  0  0  0  0  0  0  0  0  0  0  0
    2.4134   -0.3643   -3.0326 H   0  0  0  0  0  0  0  0  0  0  0  0
    3.3923   -1.5099   -2.0693 H   0  0  0  0  0  0  0  0  0  0  0  0
    4.8203   -2.7931    1.3265 H   0  0  0  0  0  0  0  0  0  0  0  0
    4.8456   -1.1274    1.9799 H   0  0  0  0  0  0  0  0  0  0  0  0
    3.9076   -2.7922    3.6212 H   0  0  0  0  0  0  0  0  0  0  0  0
    2.7598   -1.5148    3.1995 H   0  0  0  0  0  0  0  0  0  0  0  0
    2.5863   -3.1254    2.4863 H   0  0  0  0  0  0  0  0  0  0  0  0
    0.5856    1.2492    2.0584 H   0  0  0  0  0  0  0  0  0  0  0  0
   -1.0517    0.5149    1.8913 H   0  0  0  0  0  0  0  0  0  0  0  0
   -3.9245    2.4965    1.6908 H   0  0  0  0  0  0  0  0  0  0  0  0
   -3.6246    2.9901    0.0004 H   0  0  0  0  0  0  0  0  0  0  0  0
   -6.0613    2.6363    0.4145 H   0  0  0  0  0  0  0  0  0  0  0  0
   -5.4320    1.4942   -0.7811 H   0  0  0  0  0  0  0  0  0  0  0  0
   -5.7356    0.9582    0.8800 H   0  0  0  0  0  0  0  0  0  0  0  0
   -3.6473   -1.5281   -0.0799 H   0  0  0  0  0  0  0  0  0  0  0  0
   -3.3231   -1.4947   -1.8318 H   0  0  0  0  0  0  0  0  0  0  0  0
   -1.5391   -3.2011   -1.5451 H   0  0  0  0  0  0  0  0  0  0  0  0
   -1.7510   -3.1562    0.2081 H   0  0  0  0  0  0  0  0  0  0  0  0
   -3.0407   -3.8026   -0.8248 H   0  0  0  0  0  0  0  0  0  0  0  0
  1  2  1  0  0  0  0
  2  3  1  0  0  0  0
  3  4  2  0  0  0  0
  4  5  2  0  0  0  0
  4  6  2  0  0  0  0
  6  7  1  0  0  0  0
  7  8  1  0  0  0  0
  4  9  1  0  0  0  0
  9 10  1  0  0  0  0
 10 11  1  0  0  0  0
 11 12  1  0  0  0  0
 12 13  2  0  0  0  0
 12 14  1  0  0  0  0
 14 15  1  0  0  0  0
 15 16  1  0  0  0  0
 12 17  2  0  0  0  0
 17 18  1  0  0  0  0
 18 19  1  0  0  0  0
  1 20  1  0  0  0  0
  1 21  1  0  0  0  0
  1 22  1  0  0  0  0
  2 23  1  0  0  0  0
  2 24  1  0  0  0  0
  7 25  1  0  0  0  0
  7 26  1  0  0  0  0
  8 27  1  0  0  0  0
  8 28  1  0  0  0  0
  8 29  1  0  0  0  0
 10 30  1  0  0  0  0
 10 31  1  0  0  0  0
 15 32  1  0  0  0  0
 15 33  1  0  0  0  0
 16 34  1  0  0  0  0
 16 35  1  0  0  0  0
 16 36  1  0  0  0  0
 18 37  1  0  0  0  0
 18 38  1  0  0  0  0
 19 39  1  0  0  0  0
 19 40  1  0  0  0  0
 19 41  1  0  0  0  0
M  END
