8
CONF1
C 1.2158126022 0.5747534707 -0.0000201115
C 0.3043066045 -0.6214168131 -0.0000285258
Br -1.5700364462 0.0437028574 -0.0000150186
Cl 2.9447968515 -0.0486261880 -0.0000334476
H 1.1071792188 1.1847258224 -0.8968368648
H 1.1071923178 1.1847053396 0.8968117098
H 0.4069667967 -1.2287235824 0.8976851949
H 0.4069580800 -1.2287078254 -0.8977540052
8
CONF2
C 1.2595665793 0.3174067898 -1.1492747528
C 0.0387613721 -0.5504168722 -1.1247532176
Br -1.2608049831 -0.0134669270 0.2737906942
Cl 2.2934515797 0.1128712242 0.3433215387
H 1.8809736669 0.0168938327 -1.9978438387
H 1.0223313498 1.3789117488 -1.2271488186
H 0.2682089259 -1.5984802545 -0.9376625432
H -0.4907200207 -0.4458967680 -2.0736229908
