 xtb: 6.7.1 (edcfbbe)
          04032519423D

 20 20  0     0  0            999 V2000
    0.6333    1.6972   -0.0311 C   0  0  0  0  0  0  0  0  0  0  0  0
    1.3950    0.3922   -0.2659 C   0  0  0  0  0  0  0  0  0  0  0  0
    1.5952    0.2805   -1.3460 H   0  0  0  0  0  0  0  0  0  0  0  0
    0.5287   -0.7948    0.1959 C   0  0  0  0  0  0  0  0  0  0  0  0
    0.3456   -0.7220    1.2733 H   0  0  0  0  0  0  0  0  0  0  0  0
   -0.8188   -0.7345   -0.5311 C   0  0  0  0  0  0  0  0  0  0  0  0
   -0.6371   -0.7941   -1.6185 H   0  0  0  0  0  0  0  0  0  0  0  0
   -1.4698    0.6402   -0.2547 C   0  0  0  0  0  0  0  0  0  0  0  0
   -2.3681    0.7518   -0.8818 H   0  0  0  0  0  0  0  0  0  0  0  0
   -0.6270    1.6852   -0.6828 O   0  0  0  0  0  0  0  0  0  0  0  0
   -1.7789    0.7236    1.0957 O   0  0  0  0  0  0  0  0  0  0  0  0
   -1.6131   -1.8038   -0.1003 O   0  0  0  0  0  0  0  0  0  0  0  0
    1.2153   -2.0068    0.0103 O   0  0  0  0  0  0  0  0  0  0  0  0
    2.6079    0.4431    0.4407 O   0  0  0  0  0  0  0  0  0  0  0  0
    1.1769    2.5432   -0.4493 H   0  0  0  0  0  0  0  0  0  0  0  0
    0.5095    1.8377    1.0486 H   0  0  0  0  0  0  0  0  0  0  0  0
   -2.3097    1.5156    1.2724 H   0  0  0  0  0  0  0  0  0  0  0  0
   -2.4930   -1.7534   -0.5004 H   0  0  0  0  0  0  0  0  0  0  0  0
    1.1669   -2.2779   -0.9178 H   0  0  0  0  0  0  0  0  0  0  0  0
    2.9212   -0.4672    0.5673 H   0  0  0  0  0  0  0  0  0  0  0  0
  1  2  1  0  0  0  0
  2  3  1  0  0  0  0
  2  4  1  0  0  0  0
  4  5  1  0  0  0  0
  4  6  1  0  0  0  0
  6  7  1  0  0  0  0
  6  8  1  0  0  0  0
  8  9  1  0  0  0  0
  1 10  1  0  0  0  0
  8 10  1  0  0  0  0
  8 11  1  0  0  0  0
  6 12  1  0  0  0  0
  4 13  1  0  0  0  0
  2 14  1  0  0  0  0
  1 15  1  0  0  0  0
  1 16  1  0  0  0  0
 11 17  1  0  0  0  0
 12 18  1  0  0  0  0
 13 19  1  0  0  0  0
 14 20  1  0  0  0  0
M  END
