 xtb: 6.7.1 (edcfbbe)
          04032519413D

 19 19  0     0  0            999 V2000
   -2.5115   -0.7574    0.0005 C   0  0  0  0  0  0  0  0  0  0  0  0
   -1.2152    0.0046    0.0001 C   0  0  0  0  0  0  0  0  0  0  0  0
   -1.2067    1.3925   -0.0000 C   0  0  0  0  0  0  0  0  0  0  0  0
   -0.0192    2.0997   -0.0003 C   0  0  0  0  0  0  0  0  0  0  0  0
    1.1855    1.4184   -0.0001 C   0  0  0  0  0  0  0  0  0  0  0  0
    1.2174    0.0341   -0.0000 C   0  0  0  0  0  0  0  0  0  0  0  0
    0.0082   -0.6689   -0.0001 C   0  0  0  0  0  0  0  0  0  0  0  0
    0.0864   -2.0332   -0.0006 O   0  0  0  0  0  0  0  0  0  0  0  0
    2.5049   -0.7314    0.0005 C   0  0  0  0  0  0  0  0  0  0  0  0
   -2.5977   -1.3827   -0.8883 H   0  0  0  0  0  0  0  0  0  0  0  0
   -2.5936   -1.3889    0.8853 H   0  0  0  0  0  0  0  0  0  0  0  0
   -3.3476   -0.0640    0.0048 H   0  0  0  0  0  0  0  0  0  0  0  0
   -2.1476    1.9233    0.0001 H   0  0  0  0  0  0  0  0  0  0  0  0
   -0.0315    3.1790   -0.0003 H   0  0  0  0  0  0  0  0  0  0  0  0
    2.1163    1.9662   -0.0001 H   0  0  0  0  0  0  0  0  0  0  0  0
   -0.8012   -2.4188   -0.0014 H   0  0  0  0  0  0  0  0  0  0  0  0
    2.5539   -1.3793   -0.8734 H   0  0  0  0  0  0  0  0  0  0  0  0
    3.3559   -0.0566   -0.0044 H   0  0  0  0  0  0  0  0  0  0  0  0
    2.5579   -1.3710    0.8804 H   0  0  0  0  0  0  0  0  0  0  0  0
  1  2  1  0  0  0  0
  2  3  4  0  0  0  0
  3  4  4  0  0  0  0
  4  5  4  0  0  0  0
  5  6  4  0  0  0  0
  2  7  4  0  0  0  0
  6  7  4  0  0  0  0
  7  8  1  0  0  0  0
  6  9  1  0  0  0  0
  1 10  1  0  0  0  0
  1 11  1  0  0  0  0
  1 12  1  0  0  0  0
  3 13  1  0  0  0  0
  4 14  1  0  0  0  0
  5 15  1  0  0  0  0
  8 16  1  0  0  0  0
  9 17  1  0  0  0  0
  9 18  1  0  0  0  0
  9 19  1  0  0  0  0
M  END
