 xtb: 6.7.1 (edcfbbe)
          04092514013D

 41 40  0     0  0            999 V2000
    4.2303   -1.5866   -2.2531 C   0  0  0  0  0  0  0  0  0  0  0  0
    4.4934   -1.5077   -0.7627 C   0  0  0  0  0  0  0  0  0  0  0  0
    3.2798   -1.5045    0.0084 O   0  0  0  0  0  0  0  0  0  0  0  0
    2.2914   -0.2622    0.0752 P   0  0  0  0  0  0  0  0  0  0  0  0
    3.1507    1.5039    0.0463 S   0  0  0  0  0  0  0  0  0  0  0  0
    1.4362   -0.6002    1.3674 O   0  0  0  0  0  0  0  0  0  0  0  0
    1.7627   -0.0776    2.6723 C   0  0  0  0  0  0  0  0  0  0  0  0
    3.0172   -0.7085    3.2393 C   0  0  0  0  0  0  0  0  0  0  0  0
    0.8482   -0.6629   -1.4158 S   0  0  0  0  0  0  0  0  0  0  0  0
    0.0874    0.9867   -1.4388 C   0  0  0  0  0  0  0  0  0  0  0  0
   -0.8293    1.3935    0.0652 S   0  0  0  0  0  0  0  0  0  0  0  0
   -2.7060    0.4614   -0.3912 P   0  0  0  0  0  0  0  0  0  0  0  0
   -2.9680    0.0656   -2.2910 S   0  0  0  0  0  0  0  0  0  0  0  0
   -3.8377    1.4316    0.1145 O   0  0  0  0  0  0  0  0  0  0  0  0
   -4.2432    1.6198    1.4932 C   0  0  0  0  0  0  0  0  0  0  0  0
   -3.1478    2.2297    2.3416 C   0  0  0  0  0  0  0  0  0  0  0  0
   -2.8412   -0.7311    0.6577 O   0  0  0  0  0  0  0  0  0  0  0  0
   -1.8946   -1.7969    0.8299 C   0  0  0  0  0  0  0  0  0  0  0  0
   -1.9979   -2.8419   -0.2623 C   0  0  0  0  0  0  0  0  0  0  0  0
    3.5878   -2.4330   -2.4813 H   0  0  0  0  0  0  0  0  0  0  0  0
    3.7445   -0.6749   -2.5983 H   0  0  0  0  0  0  0  0  0  0  0  0
    5.1749   -1.7006   -2.7761 H   0  0  0  0  0  0  0  0  0  0  0  0
    5.0609   -0.6030   -0.5210 H   0  0  0  0  0  0  0  0  0  0  0  0
    5.0285   -2.3885   -0.4047 H   0  0  0  0  0  0  0  0  0  0  0  0
    1.8754    1.0082    2.5909 H   0  0  0  0  0  0  0  0  0  0  0  0
    0.8855   -0.3136    3.2761 H   0  0  0  0  0  0  0  0  0  0  0  0
    3.1652   -0.3579    4.2562 H   0  0  0  0  0  0  0  0  0  0  0  0
    2.9286   -1.7916    3.2388 H   0  0  0  0  0  0  0  0  0  0  0  0
    3.8810   -0.4250    2.6393 H   0  0  0  0  0  0  0  0  0  0  0  0
   -0.5957    0.9967   -2.2898 H   0  0  0  0  0  0  0  0  0  0  0  0
    0.8676    1.7402   -1.5405 H   0  0  0  0  0  0  0  0  0  0  0  0
   -5.1040    2.2851    1.4103 H   0  0  0  0  0  0  0  0  0  0  0  0
   -4.5577    0.6535    1.8913 H   0  0  0  0  0  0  0  0  0  0  0  0
   -2.8055    3.1649    1.9061 H   0  0  0  0  0  0  0  0  0  0  0  0
   -3.5350    2.4192    3.3381 H   0  0  0  0  0  0  0  0  0  0  0  0
   -2.3004    1.5501    2.4140 H   0  0  0  0  0  0  0  0  0  0  0  0
   -0.8850   -1.3761    0.8716 H   0  0  0  0  0  0  0  0  0  0  0  0
   -2.1518   -2.2175    1.8041 H   0  0  0  0  0  0  0  0  0  0  0  0
   -3.0132   -3.2250   -0.3211 H   0  0  0  0  0  0  0  0  0  0  0  0
   -1.7305   -2.4144   -1.2270 H   0  0  0  0  0  0  0  0  0  0  0  0
   -1.3161   -3.6564   -0.0394 H   0  0  0  0  0  0  0  0  0  0  0  0
  1  2  1  0  0  0  0
  2  3  1  0  0  0  0
  3  4  2  0  0  0  0
  4  5  2  0  0  0  0
  4  6  2  0  0  0  0
  6  7  1  0  0  0  0
  7  8  1  0  0  0  0
  4  9  1  0  0  0  0
  9 10  1  0  0  0  0
 10 11  1  0  0  0  0
 11 12  1  0  0  0  0
 12 13  2  0  0  0  0
 12 14  2  0  0  0  0
 14 15  1  0  0  0  0
 15 16  1  0  0  0  0
 12 17  2  0  0  0  0
 17 18  1  0  0  0  0
 18 19  1  0  0  0  0
  1 20  1  0  0  0  0
  1 21  1  0  0  0  0
  1 22  1  0  0  0  0
  2 23  1  0  0  0  0
  2 24  1  0  0  0  0
  7 25  1  0  0  0  0
  7 26  1  0  0  0  0
  8 27  1  0  0  0  0
  8 28  1  0  0  0  0
  8 29  1  0  0  0  0
 10 30  1  0  0  0  0
 10 31  1  0  0  0  0
 15 32  1  0  0  0  0
 15 33  1  0  0  0  0
 16 34  1  0  0  0  0
 16 35  1  0  0  0  0
 16 36  1  0  0  0  0
 18 37  1  0  0  0  0
 18 38  1  0  0  0  0
 19 39  1  0  0  0  0
 19 40  1  0  0  0  0
 19 41  1  0  0  0  0
M  END
