  29
 
 C         -2.5586163497       -1.4336515541       -0.1278546523
 C         -2.1820497047       -0.0407977170        0.3734448101
 C         -3.2532802519        0.9658664449       -0.0454822743
 C         -0.8135437239        0.4074124308       -0.1555155699
 C          0.3414251494       -0.4312865517        0.3897724909
 C          1.7541116257        0.0362398105       -0.0089284272
 C          2.0545688753        1.4284963254        0.5518550089
 C          2.7597083044       -0.9581543087        0.5836310033
 C          1.9157705360        0.0519411033       -1.5308430900
 H         -1.8799594019       -2.1878613123        0.2602088637
 H         -2.5273226876       -1.4645421472       -1.2148028792
 H         -3.5656465201       -1.6897144136        0.1933236328
 H         -2.1399587077       -0.0641145439        1.4687060573
 H         -3.0209880266        1.9576836236        0.3355878935
 H         -3.3163564548        1.0207275740       -1.1301556854
 H         -4.2266027884        0.6707183688        0.3396620713
 H         -0.8287240374        0.3555530019       -1.2454103430
 H         -0.6667721689        1.4504854346        0.1295748314
 H          0.2232251270       -1.4612307070        0.0477929177
 H          0.2788564956       -0.4387580211        1.4813681566
 H          3.0913003541        1.6939324736        0.3572893449
 H          1.4231614332        2.1824410620        0.0896909955
 H          1.8912198858        1.4508214785        1.6268817607
 H          3.7771975715       -0.6687080561        0.3304244795
 H          2.6732968599       -0.9906006541        1.6675284694
 H          2.5833104537       -1.9592641035        0.1961785095
 H          2.9498832730        0.2618775411       -1.7951211403
 H          1.2909476054        0.8180402740       -1.9816332279
 H          1.6434983952       -0.9123771827       -1.9539522140
          29
        -29.49253035
 C         -3.2242433721       -1.0291304359       -0.0609153785
 C         -2.1792680956        0.0024750862        0.3638861614
 C         -2.6012492517        1.3909567320       -0.1120706215
 C         -0.8036284727       -0.3974809470       -0.1842177883
 C          0.3333608942        0.4635600247        0.3643736398
 C          1.7564808063       -0.0039947191        0.0042832647
 C          1.9342531353       -0.0956292619       -1.5131424849
 C          2.7435139292        1.0318169550        0.5560475851
 C          2.0685426615       -1.3615718037        0.6391200870
 H         -4.2021830786       -0.7701437050        0.3381263684
 H         -2.9579299173       -2.0194281413        0.3015091623
 H         -3.2959732035       -1.0682905118       -1.1458346811
 H         -2.1272562577        0.0106596698        1.4589672159
 H         -1.9254750565        2.1557977684        0.2602103156
 H         -2.6066415514        1.4316011849       -1.1993381644
 H         -3.6024413044        1.6228136405        0.2443406457
 H         -0.6259502263       -1.4407155793        0.0819164464
 H         -0.8294152222       -0.3284119717       -1.2729674249
 H          0.2501774703        0.4961659707        1.4541346329
 H          0.2138778658        1.4843546590       -0.0038692079
 H          1.6525036017        0.8415388272       -1.9879311640
 H          2.9739327517       -0.3035433672       -1.7564510026
 H          1.3246014915       -0.8929139452       -1.9294496878
 H          3.7676791993        0.7370630003        0.3386230079
 H          2.5664626605        2.0070390287        0.1078913399
 H          2.6364515812        1.1259705135        1.6344807530
 H          1.9040977147       -1.3279582143        1.7138083202
 H          3.1078269180       -1.6279152462        0.4598630559
 H          1.4448159891       -2.1456198661        0.2183659538
