 xtb: 6.7.1 (edcfbbe)
          04092505203D

 41 40  0     0  0            999 V2000
    5.7115    0.0711    0.0179 C   0  0  0  0  0  0  0  0  0  0  0  0
    4.7702   -0.1769   -1.1421 C   0  0  0  0  0  0  0  0  0  0  0  0
    3.6203    0.7077   -1.0854 O   0  0  0  0  0  0  0  0  0  0  0  0
    2.2703    0.3562   -0.3670 P   0  0  0  0  0  0  0  0  0  0  0  0
    0.9142    1.7332   -0.6762 S   0  0  0  0  0  0  0  0  0  0  0  0
    2.7292    0.1914    1.1499 O   0  0  0  0  0  0  0  0  0  0  0  0
    1.8285   -0.0413    2.2477 C   0  0  0  0  0  0  0  0  0  0  0  0
    1.8328   -1.5052    2.6448 C   0  0  0  0  0  0  0  0  0  0  0  0
    1.7949   -1.6004   -1.0833 S   0  0  0  0  0  0  0  0  0  0  0  0
    0.0143   -1.4325   -1.2963 C   0  0  0  0  0  0  0  0  0  0  0  0
   -0.9016   -1.5504    0.2865 S   0  0  0  0  0  0  0  0  0  0  0  0
   -2.2014    0.0959    0.1153 P   0  0  0  0  0  0  0  0  0  0  0  0
   -2.4969    0.8576   -1.6715 S   0  0  0  0  0  0  0  0  0  0  0  0
   -1.5971    1.0335    1.2423 O   0  0  0  0  0  0  0  0  0  0  0  0
   -1.8834    2.4427    1.3145 C   0  0  0  0  0  0  0  0  0  0  0  0
   -3.3508    2.7172    1.5648 C   0  0  0  0  0  0  0  0  0  0  0  0
   -3.5276   -0.4053    0.8390 O   0  0  0  0  0  0  0  0  0  0  0  0
   -4.6014   -1.0490    0.1337 C   0  0  0  0  0  0  0  0  0  0  0  0
   -4.2025   -2.4076   -0.4061 C   0  0  0  0  0  0  0  0  0  0  0  0
    6.0144    1.1145    0.0351 H   0  0  0  0  0  0  0  0  0  0  0  0
    5.2250   -0.1670    0.9594 H   0  0  0  0  0  0  0  0  0  0  0  0
    6.5901   -0.5554   -0.1009 H   0  0  0  0  0  0  0  0  0  0  0  0
    4.4175   -1.2116   -1.1566 H   0  0  0  0  0  0  0  0  0  0  0  0
    5.2414    0.0657   -2.0961 H   0  0  0  0  0  0  0  0  0  0  0  0
    2.2069    0.5881    3.0557 H   0  0  0  0  0  0  0  0  0  0  0  0
    0.8240    0.2982    1.9740 H   0  0  0  0  0  0  0  0  0  0  0  0
    1.4411   -2.1253    1.8418 H   0  0  0  0  0  0  0  0  0  0  0  0
    2.8449   -1.8236    2.8771 H   0  0  0  0  0  0  0  0  0  0  0  0
    1.2050   -1.6340    3.5204 H   0  0  0  0  0  0  0  0  0  0  0  0
   -0.2854   -2.2648   -1.9277 H   0  0  0  0  0  0  0  0  0  0  0  0
   -0.2217   -0.4733   -1.7636 H   0  0  0  0  0  0  0  0  0  0  0  0
   -1.2577    2.7923    2.1371 H   0  0  0  0  0  0  0  0  0  0  0  0
   -1.5464    2.9075    0.3815 H   0  0  0  0  0  0  0  0  0  0  0  0
   -3.6877    2.1765    2.4455 H   0  0  0  0  0  0  0  0  0  0  0  0
   -3.4953    3.7828    1.7131 H   0  0  0  0  0  0  0  0  0  0  0  0
   -3.9395    2.3973    0.7056 H   0  0  0  0  0  0  0  0  0  0  0  0
   -5.3932   -1.1280    0.8798 H   0  0  0  0  0  0  0  0  0  0  0  0
   -4.9201   -0.3925   -0.6824 H   0  0  0  0  0  0  0  0  0  0  0  0
   -3.4649   -2.2882   -1.1989 H   0  0  0  0  0  0  0  0  0  0  0  0
   -3.7754   -3.0191    0.3847 H   0  0  0  0  0  0  0  0  0  0  0  0
   -5.0781   -2.9024   -0.8139 H   0  0  0  0  0  0  0  0  0  0  0  0
  1  2  1  0  0  0  0
  2  3  1  0  0  0  0
  3  4  2  0  0  0  0
  4  5  2  0  0  0  0
  4  6  2  0  0  0  0
  6  7  1  0  0  0  0
  7  8  1  0  0  0  0
  4  9  1  0  0  0  0
  9 10  1  0  0  0  0
 10 11  1  0  0  0  0
 11 12  1  0  0  0  0
 12 13  2  0  0  0  0
 12 14  2  0  0  0  0
 14 15  1  0  0  0  0
 15 16  1  0  0  0  0
 12 17  2  0  0  0  0
 17 18  1  0  0  0  0
 18 19  1  0  0  0  0
  1 20  1  0  0  0  0
  1 21  1  0  0  0  0
  1 22  1  0  0  0  0
  2 23  1  0  0  0  0
  2 24  1  0  0  0  0
  7 25  1  0  0  0  0
  7 26  1  0  0  0  0
  8 27  1  0  0  0  0
  8 28  1  0  0  0  0
  8 29  1  0  0  0  0
 10 30  1  0  0  0  0
 10 31  1  0  0  0  0
 15 32  1  0  0  0  0
 15 33  1  0  0  0  0
 16 34  1  0  0  0  0
 16 35  1  0  0  0  0
 16 36  1  0  0  0  0
 18 37  1  0  0  0  0
 18 38  1  0  0  0  0
 19 39  1  0  0  0  0
 19 40  1  0  0  0  0
 19 41  1  0  0  0  0
M  END
