17
 xtb: 6.7.1 (edcfbbe)
C           -1.70263465933713       -0.05369277746266       -0.52776093021949
C           -1.08946474269862        1.31092815665091       -0.15624203196674
C            0.29097376426346        1.17896067549039        0.53564548825474
C            1.05742566602811       -0.01070607358533        0.04654247729567
O            2.20842079980702        0.06207259683693       -0.37950537430995
C            0.32925692644313       -1.33027151036644        0.13114263084274
C           -1.17243241020361       -1.16384228970619        0.38015809561033
H           -1.44018492666448       -0.30780522026048       -1.56289618381942
H           -2.79446060610154        0.00295225280892       -0.48202456588835
H           -0.97937485983801        1.92644596659623       -1.05373613740006
H           -1.75497480209881        1.85196020737855        0.52289861243561
H            0.88912215781149        2.08675552883099        0.43329954872389
H            0.12812226617356        0.99702616047533        1.60775695301676
H            0.51718513321975       -1.87201652758469       -0.80362024187578
H            0.81399866135734       -1.91017351158715        0.92842374479698
H           -1.68555771437442       -2.10999029311144        0.18333320398500
H           -1.35966542530893       -0.91062096912651        1.43075483256566
