 xtb: 6.7.1 (edcfbbe)
          04092514003D

 41 40  0     0  0            999 V2000
    4.2186   -1.3572   -2.4102 C   0  0  0  0  0  0  0  0  0  0  0  0
    4.7090   -1.1225   -0.9959 C   0  0  0  0  0  0  0  0  0  0  0  0
    3.6421   -1.1533   -0.0316 O   0  0  0  0  0  0  0  0  0  0  0  0
    2.5725    0.0135    0.1254 P   0  0  0  0  0  0  0  0  0  0  0  0
    3.2526    1.8122   -0.2318 S   0  0  0  0  0  0  0  0  0  0  0  0
    2.1128   -0.1287    1.6288 O   0  0  0  0  0  0  0  0  0  0  0  0
    1.2637   -1.1564    2.1891 C   0  0  0  0  0  0  0  0  0  0  0  0
    1.8299   -2.5494    2.0148 C   0  0  0  0  0  0  0  0  0  0  0  0
    0.9132   -0.6192   -1.0616 S   0  0  0  0  0  0  0  0  0  0  0  0
    0.1160    0.9950   -1.2327 C   0  0  0  0  0  0  0  0  0  0  0  0
   -0.7315    1.5677    0.2713 S   0  0  0  0  0  0  0  0  0  0  0  0
   -2.4510    0.3542    0.0939 P   0  0  0  0  0  0  0  0  0  0  0  0
   -3.1615    0.0261   -1.7066 S   0  0  0  0  0  0  0  0  0  0  0  0
   -3.5023    0.9747    1.1153 O   0  0  0  0  0  0  0  0  0  0  0  0
   -4.5342    1.9001    0.7296 C   0  0  0  0  0  0  0  0  0  0  0  0
   -3.9838    3.2712    0.3939 C   0  0  0  0  0  0  0  0  0  0  0  0
   -1.9538   -0.9161    0.9016 O   0  0  0  0  0  0  0  0  0  0  0  0
   -2.6433   -2.1895    0.8439 C   0  0  0  0  0  0  0  0  0  0  0  0
   -1.8508   -3.1671   -0.0006 C   0  0  0  0  0  0  0  0  0  0  0  0
    3.6312   -2.2699   -2.4632 H   0  0  0  0  0  0  0  0  0  0  0  0
    3.6031   -0.5211   -2.7375 H   0  0  0  0  0  0  0  0  0  0  0  0
    5.0749   -1.4426   -3.0723 H   0  0  0  0  0  0  0  0  0  0  0  0
    5.2184   -0.1564   -0.9206 H   0  0  0  0  0  0  0  0  0  0  0  0
    5.3783   -1.9194   -0.6676 H   0  0  0  0  0  0  0  0  0  0  0  0
    1.1967   -0.8762    3.2414 H   0  0  0  0  0  0  0  0  0  0  0  0
    0.2753   -1.0746    1.7286 H   0  0  0  0  0  0  0  0  0  0  0  0
    1.8733   -2.8111    0.9592 H   0  0  0  0  0  0  0  0  0  0  0  0
    2.8329   -2.6034    2.4298 H   0  0  0  0  0  0  0  0  0  0  0  0
    1.1893   -3.2571    2.5331 H   0  0  0  0  0  0  0  0  0  0  0  0
   -0.6097    0.9021   -2.0410 H   0  0  0  0  0  0  0  0  0  0  0  0
    0.8731    1.7468   -1.4582 H   0  0  0  0  0  0  0  0  0  0  0  0
   -5.0723    1.4822   -0.1273 H   0  0  0  0  0  0  0  0  0  0  0  0
   -5.1916    1.9351    1.5998 H   0  0  0  0  0  0  0  0  0  0  0  0
   -4.8101    3.9533    0.2184 H   0  0  0  0  0  0  0  0  0  0  0  0
   -3.3744    3.6475    1.2116 H   0  0  0  0  0  0  0  0  0  0  0  0
   -3.3715    3.2200   -0.5055 H   0  0  0  0  0  0  0  0  0  0  0  0
   -2.7189   -2.5201    1.8810 H   0  0  0  0  0  0  0  0  0  0  0  0
   -3.6457   -2.0401    0.4332 H   0  0  0  0  0  0  0  0  0  0  0  0
   -2.3433   -4.1340    0.0141 H   0  0  0  0  0  0  0  0  0  0  0  0
   -1.7914   -2.8121   -1.0273 H   0  0  0  0  0  0  0  0  0  0  0  0
   -0.8426   -3.2690    0.3901 H   0  0  0  0  0  0  0  0  0  0  0  0
  1  2  1  0  0  0  0
  2  3  1  0  0  0  0
  3  4  2  0  0  0  0
  4  5  2  0  0  0  0
  4  6  2  0  0  0  0
  6  7  1  0  0  0  0
  7  8  1  0  0  0  0
  4  9  1  0  0  0  0
  9 10  1  0  0  0  0
 10 11  1  0  0  0  0
 11 12  1  0  0  0  0
 12 13  2  0  0  0  0
 12 14  2  0  0  0  0
 14 15  1  0  0  0  0
 15 16  1  0  0  0  0
 12 17  2  0  0  0  0
 17 18  1  0  0  0  0
 18 19  1  0  0  0  0
  1 20  1  0  0  0  0
  1 21  1  0  0  0  0
  1 22  1  0  0  0  0
  2 23  1  0  0  0  0
  2 24  1  0  0  0  0
  7 25  1  0  0  0  0
  7 26  1  0  0  0  0
  8 27  1  0  0  0  0
  8 28  1  0  0  0  0
  8 29  1  0  0  0  0
 10 30  1  0  0  0  0
 10 31  1  0  0  0  0
 15 32  1  0  0  0  0
 15 33  1  0  0  0  0
 16 34  1  0  0  0  0
 16 35  1  0  0  0  0
 16 36  1  0  0  0  0
 18 37  1  0  0  0  0
 18 38  1  0  0  0  0
 19 39  1  0  0  0  0
 19 40  1  0  0  0  0
 19 41  1  0  0  0  0
M  END
