 xtb: 6.7.1 (edcfbbe)
          04092507313D

 38 37  0     0  0            999 V2000
    4.8610   -3.1199   -1.7605 C   0  0  0  0  0  0  0  0  0  0  0  0
    4.9558   -2.0834   -0.6523 C   0  0  0  0  0  0  0  0  0  0  0  0
    3.7506   -2.0655    0.1383 O   0  0  0  0  0  0  0  0  0  0  0  0
    2.7562   -1.2912   -0.2411 C   0  0  0  0  0  0  0  0  0  0  0  0
    2.7788   -0.5599   -1.2100 O   0  0  0  0  0  0  0  0  0  0  0  0
    1.5754   -1.4035    0.7007 C   0  0  0  0  0  0  0  0  0  0  0  0
    0.4151   -0.6133    0.1276 C   0  0  0  0  0  0  0  0  0  0  0  0
    0.0428   -1.0468   -0.8068 H   0  0  0  0  0  0  0  0  0  0  0  0
    0.7341    0.8444   -0.1270 C   0  0  0  0  0  0  0  0  0  0  0  0
    0.1177    1.5047   -0.9383 O   0  0  0  0  0  0  0  0  0  0  0  0
    1.6574    1.3135    0.6803 O   0  0  0  0  0  0  0  0  0  0  0  0
    1.9911    2.7136    0.5887 C   0  0  0  0  0  0  0  0  0  0  0  0
    0.9691    3.5705    1.3180 C   0  0  0  0  0  0  0  0  0  0  0  0
   -0.9899   -0.5465    1.2901 S   0  0  0  0  0  0  0  0  0  0  0  0
   -2.4357    0.2229   -0.0747 P   0  0  0  0  0  0  0  0  0  0  0  0
   -2.3221   -0.4206   -1.9169 S   0  0  0  0  0  0  0  0  0  0  0  0
   -3.7944   -0.1722    0.6694 O   0  0  0  0  0  0  0  0  0  0  0  0
   -4.2377   -1.5335    0.7250 C   0  0  0  0  0  0  0  0  0  0  0  0
   -2.4741    1.7943    0.0961 O   0  0  0  0  0  0  0  0  0  0  0  0
   -2.7947    2.4050    1.3642 C   0  0  0  0  0  0  0  0  0  0  0  0
    5.8038   -3.1604   -2.2960 H   0  0  0  0  0  0  0  0  0  0  0  0
    4.6442   -4.0981   -1.3407 H   0  0  0  0  0  0  0  0  0  0  0  0
    4.0712   -2.8503   -2.4586 H   0  0  0  0  0  0  0  0  0  0  0  0
    5.1157   -1.0847   -1.0684 H   0  0  0  0  0  0  0  0  0  0  0  0
    5.7433   -2.3326    0.0588 H   0  0  0  0  0  0  0  0  0  0  0  0
    1.8706   -1.0045    1.6729 H   0  0  0  0  0  0  0  0  0  0  0  0
    1.3073   -2.4520    0.8289 H   0  0  0  0  0  0  0  0  0  0  0  0
    2.9761    2.7803    1.0503 H   0  0  0  0  0  0  0  0  0  0  0  0
    2.0458    2.9861   -0.4690 H   0  0  0  0  0  0  0  0  0  0  0  0
    0.0050    3.4973    0.8197 H   0  0  0  0  0  0  0  0  0  0  0  0
    0.8687    3.2393    2.3480 H   0  0  0  0  0  0  0  0  0  0  0  0
    1.2949    4.6051    1.3023 H   0  0  0  0  0  0  0  0  0  0  0  0
   -5.2791   -1.4893    1.0330 H   0  0  0  0  0  0  0  0  0  0  0  0
   -3.6425   -2.0841    1.4525 H   0  0  0  0  0  0  0  0  0  0  0  0
   -4.1493   -1.9961   -0.2591 H   0  0  0  0  0  0  0  0  0  0  0  0
   -3.8420    2.2287    1.6001 H   0  0  0  0  0  0  0  0  0  0  0  0
   -2.6028    3.4661    1.2268 H   0  0  0  0  0  0  0  0  0  0  0  0
   -2.1609    1.9923    2.1500 H   0  0  0  0  0  0  0  0  0  0  0  0
  1  2  1  0  0  0  0
  2  3  1  0  0  0  0
  3  4  1  0  0  0  0
  4  5  2  0  0  0  0
  4  6  1  0  0  0  0
  6  7  1  0  0  0  0
  7  8  1  0  0  0  0
  7  9  1  0  0  0  0
  9 10  2  0  0  0  0
  9 11  4  0  0  0  0
 11 12  1  0  0  0  0
 12 13  1  0  0  0  0
  7 14  1  0  0  0  0
 14 15  1  0  0  0  0
 15 16  2  0  0  0  0
 15 17  2  0  0  0  0
 17 18  1  0  0  0  0
 15 19  2  0  0  0  0
 19 20  1  0  0  0  0
  1 21  1  0  0  0  0
  1 22  1  0  0  0  0
  1 23  1  0  0  0  0
  2 24  1  0  0  0  0
  2 25  1  0  0  0  0
  6 26  1  0  0  0  0
  6 27  1  0  0  0  0
 12 28  1  0  0  0  0
 12 29  1  0  0  0  0
 13 30  1  0  0  0  0
 13 31  1  0  0  0  0
 13 32  1  0  0  0  0
 18 33  1  0  0  0  0
 18 34  1  0  0  0  0
 18 35  1  0  0  0  0
 20 36  1  0  0  0  0
 20 37  1  0  0  0  0
 20 38  1  0  0  0  0
M  END
