 xtb: 6.7.1 (edcfbbe)
          04092505213D

 41 40  0     0  0            999 V2000
    4.2410    0.1002   -2.1796 C   0  0  0  0  0  0  0  0  0  0  0  0
    4.4241   -0.2986   -0.7288 C   0  0  0  0  0  0  0  0  0  0  0  0
    3.1739   -0.6072   -0.0920 O   0  0  0  0  0  0  0  0  0  0  0  0
    2.1103    0.5274    0.2717 P   0  0  0  0  0  0  0  0  0  0  0  0
    2.8716    2.2358    0.8496 S   0  0  0  0  0  0  0  0  0  0  0  0
    1.1922   -0.2183    1.3240 O   0  0  0  0  0  0  0  0  0  0  0  0
    1.4514   -0.1719    2.7400 C   0  0  0  0  0  0  0  0  0  0  0  0
    2.6901   -0.9593    3.1113 C   0  0  0  0  0  0  0  0  0  0  0  0
    0.7860    0.6016   -1.3732 S   0  0  0  0  0  0  0  0  0  0  0  0
    0.4237   -1.1621   -1.5876 C   0  0  0  0  0  0  0  0  0  0  0  0
   -0.6432   -1.8797   -0.2972 S   0  0  0  0  0  0  0  0  0  0  0  0
   -2.1379   -0.4098   -0.2784 P   0  0  0  0  0  0  0  0  0  0  0  0
   -2.7019    0.3543   -1.9989 S   0  0  0  0  0  0  0  0  0  0  0  0
   -1.5909    0.5879    0.8258 O   0  0  0  0  0  0  0  0  0  0  0  0
   -2.1875    1.8868    1.0432 C   0  0  0  0  0  0  0  0  0  0  0  0
   -1.3508    2.9738    0.3981 C   0  0  0  0  0  0  0  0  0  0  0  0
   -3.3222   -1.1100    0.5219 O   0  0  0  0  0  0  0  0  0  0  0  0
   -4.2508   -2.0100   -0.1174 C   0  0  0  0  0  0  0  0  0  0  0  0
   -5.5033   -2.0740    0.7333 C   0  0  0  0  0  0  0  0  0  0  0  0
    5.2140    0.2684   -2.6299 H   0  0  0  0  0  0  0  0  0  0  0  0
    3.7220   -0.6796   -2.7310 H   0  0  0  0  0  0  0  0  0  0  0  0
    3.6607    1.0206   -2.2414 H   0  0  0  0  0  0  0  0  0  0  0  0
    4.9066    0.5098   -0.1701 H   0  0  0  0  0  0  0  0  0  0  0  0
    5.0053   -1.2167   -0.6316 H   0  0  0  0  0  0  0  0  0  0  0  0
    1.5534    0.8765    3.0391 H   0  0  0  0  0  0  0  0  0  0  0  0
    0.5494   -0.5983    3.1818 H   0  0  0  0  0  0  0  0  0  0  0  0
    2.7838   -0.9921    4.1923 H   0  0  0  0  0  0  0  0  0  0  0  0
    2.6211   -1.9716    2.7217 H   0  0  0  0  0  0  0  0  0  0  0  0
    3.5733   -0.4776    2.6940 H   0  0  0  0  0  0  0  0  0  0  0  0
    1.3444   -1.7403   -1.5748 H   0  0  0  0  0  0  0  0  0  0  0  0
   -0.0808   -1.2328   -2.5499 H   0  0  0  0  0  0  0  0  0  0  0  0
   -3.2038    1.8882    0.6395 H   0  0  0  0  0  0  0  0  0  0  0  0
   -2.2226    1.9998    2.1280 H   0  0  0  0  0  0  0  0  0  0  0  0
   -1.7681    3.9441    0.6472 H   0  0  0  0  0  0  0  0  0  0  0  0
   -0.3240    2.9256    0.7563 H   0  0  0  0  0  0  0  0  0  0  0  0
   -1.3447    2.8551   -0.6838 H   0  0  0  0  0  0  0  0  0  0  0  0
   -4.4655   -1.6317   -1.1225 H   0  0  0  0  0  0  0  0  0  0  0  0
   -3.7716   -2.9891   -0.1966 H   0  0  0  0  0  0  0  0  0  0  0  0
   -5.2527   -2.4065    1.7365 H   0  0  0  0  0  0  0  0  0  0  0  0
   -5.9676   -1.0937    0.7929 H   0  0  0  0  0  0  0  0  0  0  0  0
   -6.2010   -2.7737    0.2852 H   0  0  0  0  0  0  0  0  0  0  0  0
  1  2  1  0  0  0  0
  2  3  1  0  0  0  0
  3  4  2  0  0  0  0
  4  5  2  0  0  0  0
  4  6  2  0  0  0  0
  6  7  1  0  0  0  0
  7  8  1  0  0  0  0
  4  9  1  0  0  0  0
  9 10  1  0  0  0  0
 10 11  1  0  0  0  0
 11 12  1  0  0  0  0
 12 13  2  0  0  0  0
 12 14  2  0  0  0  0
 14 15  1  0  0  0  0
 15 16  1  0  0  0  0
 12 17  2  0  0  0  0
 17 18  1  0  0  0  0
 18 19  1  0  0  0  0
  1 20  1  0  0  0  0
  1 21  1  0  0  0  0
  1 22  1  0  0  0  0
  2 23  1  0  0  0  0
  2 24  1  0  0  0  0
  7 25  1  0  0  0  0
  7 26  1  0  0  0  0
  8 27  1  0  0  0  0
  8 28  1  0  0  0  0
  8 29  1  0  0  0  0
 10 30  1  0  0  0  0
 10 31  1  0  0  0  0
 15 32  1  0  0  0  0
 15 33  1  0  0  0  0
 16 34  1  0  0  0  0
 16 35  1  0  0  0  0
 16 36  1  0  0  0  0
 18 37  1  0  0  0  0
 18 38  1  0  0  0  0
 19 39  1  0  0  0  0
 19 40  1  0  0  0  0
 19 41  1  0  0  0  0
M  END
