 xtb: 6.7.1 (edcfbbe)
          04092505213D

 41 40  0     0  0            999 V2000
    4.5178    2.0621    0.1834 C   0  0  0  0  0  0  0  0  0  0  0  0
    4.0446    1.3608   -1.0730 C   0  0  0  0  0  0  0  0  0  0  0  0
    3.3611    0.1217   -0.8036 O   0  0  0  0  0  0  0  0  0  0  0  0
    2.1666   -0.0716    0.2245 P   0  0  0  0  0  0  0  0  0  0  0  0
    2.6294   -0.2170    2.1284 S   0  0  0  0  0  0  0  0  0  0  0  0
    1.4685   -1.3642   -0.3721 O   0  0  0  0  0  0  0  0  0  0  0  0
    1.6896   -2.6822    0.1545 C   0  0  0  0  0  0  0  0  0  0  0  0
    3.0673   -3.1917   -0.2116 C   0  0  0  0  0  0  0  0  0  0  0  0
    0.8029    1.4393   -0.3076 S   0  0  0  0  0  0  0  0  0  0  0  0
   -0.2359    1.3195    1.1757 C   0  0  0  0  0  0  0  0  0  0  0  0
   -1.0718   -0.2819    1.3595 S   0  0  0  0  0  0  0  0  0  0  0  0
   -2.1885   -0.3496   -0.4499 P   0  0  0  0  0  0  0  0  0  0  0  0
   -1.2894   -0.9039   -2.0971 S   0  0  0  0  0  0  0  0  0  0  0  0
   -2.9057    1.0743   -0.5011 O   0  0  0  0  0  0  0  0  0  0  0  0
   -2.8821    1.9656   -1.6362 C   0  0  0  0  0  0  0  0  0  0  0  0
   -2.1717    3.2588   -1.2911 C   0  0  0  0  0  0  0  0  0  0  0  0
   -3.3216   -1.3958   -0.0892 O   0  0  0  0  0  0  0  0  0  0  0  0
   -4.5503   -1.1194    0.6273 C   0  0  0  0  0  0  0  0  0  0  0  0
   -4.3266   -0.5689    2.0194 C   0  0  0  0  0  0  0  0  0  0  0  0
    3.6647    2.3736    0.7850 H   0  0  0  0  0  0  0  0  0  0  0  0
    5.1353    1.3955    0.7810 H   0  0  0  0  0  0  0  0  0  0  0  0
    5.0962    2.9383   -0.0913 H   0  0  0  0  0  0  0  0  0  0  0  0
    4.8835    1.0574   -1.7021 H   0  0  0  0  0  0  0  0  0  0  0  0
    3.3678    2.0025   -1.6448 H   0  0  0  0  0  0  0  0  0  0  0  0
    1.5597   -2.6508    1.2423 H   0  0  0  0  0  0  0  0  0  0  0  0
    0.8964   -3.2828   -0.2945 H   0  0  0  0  0  0  0  0  0  0  0  0
    3.1862   -4.2084    0.1493 H   0  0  0  0  0  0  0  0  0  0  0  0
    3.1990   -3.1683   -1.2902 H   0  0  0  0  0  0  0  0  0  0  0  0
    3.8238   -2.5565    0.2489 H   0  0  0  0  0  0  0  0  0  0  0  0
   -0.9718    2.1166    1.1129 H   0  0  0  0  0  0  0  0  0  0  0  0
    0.3890    1.4225    2.0634 H   0  0  0  0  0  0  0  0  0  0  0  0
   -2.3956    1.4565   -2.4750 H   0  0  0  0  0  0  0  0  0  0  0  0
   -3.9306    2.1478   -1.8805 H   0  0  0  0  0  0  0  0  0  0  0  0
   -1.1102    3.0821   -1.1270 H   0  0  0  0  0  0  0  0  0  0  0  0
   -2.2847    3.9486   -2.1212 H   0  0  0  0  0  0  0  0  0  0  0  0
   -2.6086    3.7019   -0.4004 H   0  0  0  0  0  0  0  0  0  0  0  0
   -5.1421   -0.4256    0.0266 H   0  0  0  0  0  0  0  0  0  0  0  0
   -5.0406   -2.0939    0.6554 H   0  0  0  0  0  0  0  0  0  0  0  0
   -3.6617   -1.2182    2.5840 H   0  0  0  0  0  0  0  0  0  0  0  0
   -3.8878    0.4246    1.9689 H   0  0  0  0  0  0  0  0  0  0  0  0
   -5.2834   -0.5080    2.5290 H   0  0  0  0  0  0  0  0  0  0  0  0
  1  2  1  0  0  0  0
  2  3  1  0  0  0  0
  3  4  2  0  0  0  0
  4  5  2  0  0  0  0
  4  6  2  0  0  0  0
  6  7  1  0  0  0  0
  7  8  1  0  0  0  0
  4  9  1  0  0  0  0
  9 10  1  0  0  0  0
 10 11  1  0  0  0  0
 11 12  1  0  0  0  0
 12 13  2  0  0  0  0
 12 14  2  0  0  0  0
 14 15  1  0  0  0  0
 15 16  1  0  0  0  0
 12 17  2  0  0  0  0
 17 18  1  0  0  0  0
 18 19  1  0  0  0  0
  1 20  1  0  0  0  0
  1 21  1  0  0  0  0
  1 22  1  0  0  0  0
  2 23  1  0  0  0  0
  2 24  1  0  0  0  0
  7 25  1  0  0  0  0
  7 26  1  0  0  0  0
  8 27  1  0  0  0  0
  8 28  1  0  0  0  0
  8 29  1  0  0  0  0
 10 30  1  0  0  0  0
 10 31  1  0  0  0  0
 15 32  1  0  0  0  0
 15 33  1  0  0  0  0
 16 34  1  0  0  0  0
 16 35  1  0  0  0  0
 16 36  1  0  0  0  0
 18 37  1  0  0  0  0
 18 38  1  0  0  0  0
 19 39  1  0  0  0  0
 19 40  1  0  0  0  0
 19 41  1  0  0  0  0
M  END
