 xtb: 6.7.1 (edcfbbe)
          04092505203D

 41 40  0     0  0            999 V2000
    4.6340   -1.2512   -1.3737 C   0  0  0  0  0  0  0  0  0  0  0  0
    4.3510   -1.3032    0.1134 C   0  0  0  0  0  0  0  0  0  0  0  0
    3.5627   -0.1929    0.5785 O   0  0  0  0  0  0  0  0  0  0  0  0
    2.1761    0.2949   -0.0306 P   0  0  0  0  0  0  0  0  0  0  0  0
    2.2538    1.3080   -1.7139 S   0  0  0  0  0  0  0  0  0  0  0  0
    1.6094    1.0896    1.2216 O   0  0  0  0  0  0  0  0  0  0  0  0
    1.7636    2.5118    1.3609 C   0  0  0  0  0  0  0  0  0  0  0  0
    3.2074    2.8897    1.6119 C   0  0  0  0  0  0  0  0  0  0  0  0
    1.0236   -1.4659   -0.0082 S   0  0  0  0  0  0  0  0  0  0  0  0
   -0.0500   -1.1979   -1.4668 C   0  0  0  0  0  0  0  0  0  0  0  0
   -1.7832   -1.5502   -1.1297 S   0  0  0  0  0  0  0  0  0  0  0  0
   -2.3546    0.2229   -0.0899 P   0  0  0  0  0  0  0  0  0  0  0  0
   -1.1434    1.7394   -0.3704 S   0  0  0  0  0  0  0  0  0  0  0  0
   -2.6183   -0.1687    1.4315 O   0  0  0  0  0  0  0  0  0  0  0  0
   -1.5828   -0.4748    2.3824 C   0  0  0  0  0  0  0  0  0  0  0  0
   -1.4484   -1.9745    2.5640 C   0  0  0  0  0  0  0  0  0  0  0  0
   -3.8087    0.5578   -0.5802 O   0  0  0  0  0  0  0  0  0  0  0  0
   -5.0157   -0.1378   -0.1744 C   0  0  0  0  0  0  0  0  0  0  0  0
   -4.9981   -1.6019   -0.5555 C   0  0  0  0  0  0  0  0  0  0  0  0
    5.2978   -2.0667   -1.6422 H   0  0  0  0  0  0  0  0  0  0  0  0
    3.7074   -1.3460   -1.9382 H   0  0  0  0  0  0  0  0  0  0  0  0
    5.0989   -0.3050   -1.6404 H   0  0  0  0  0  0  0  0  0  0  0  0
    5.2705   -1.2240    0.6961 H   0  0  0  0  0  0  0  0  0  0  0  0
    3.8249   -2.2255    0.3753 H   0  0  0  0  0  0  0  0  0  0  0  0
    1.3790    2.9937    0.4551 H   0  0  0  0  0  0  0  0  0  0  0  0
    1.1189    2.7669    2.2031 H   0  0  0  0  0  0  0  0  0  0  0  0
    3.2772    3.9600    1.7779 H   0  0  0  0  0  0  0  0  0  0  0  0
    3.5875    2.3579    2.4800 H   0  0  0  0  0  0  0  0  0  0  0  0
    3.8099    2.6234    0.7438 H   0  0  0  0  0  0  0  0  0  0  0  0
    0.2491   -1.8984   -2.2421 H   0  0  0  0  0  0  0  0  0  0  0  0
    0.0702   -0.1631   -1.7981 H   0  0  0  0  0  0  0  0  0  0  0  0
   -0.6409   -0.0213    2.0563 H   0  0  0  0  0  0  0  0  0  0  0  0
   -1.9049    0.0071    3.3079 H   0  0  0  0  0  0  0  0  0  0  0  0
   -2.4039   -2.3986    2.8588 H   0  0  0  0  0  0  0  0  0  0  0  0
   -1.1174   -2.4479    1.6425 H   0  0  0  0  0  0  0  0  0  0  0  0
   -0.7136   -2.1707    3.3381 H   0  0  0  0  0  0  0  0  0  0  0  0
   -5.1327   -0.0124    0.9033 H   0  0  0  0  0  0  0  0  0  0  0  0
   -5.8008    0.4070   -0.7007 H   0  0  0  0  0  0  0  0  0  0  0  0
   -4.8145   -1.7159   -1.6207 H   0  0  0  0  0  0  0  0  0  0  0  0
   -4.2165   -2.1268   -0.0094 H   0  0  0  0  0  0  0  0  0  0  0  0
   -5.9588   -2.0431   -0.3085 H   0  0  0  0  0  0  0  0  0  0  0  0
  1  2  1  0  0  0  0
  2  3  1  0  0  0  0
  3  4  2  0  0  0  0
  4  5  2  0  0  0  0
  4  6  2  0  0  0  0
  6  7  1  0  0  0  0
  7  8  1  0  0  0  0
  4  9  1  0  0  0  0
  9 10  1  0  0  0  0
 10 11  1  0  0  0  0
 11 12  1  0  0  0  0
 12 13  2  0  0  0  0
 12 14  2  0  0  0  0
 14 15  1  0  0  0  0
 15 16  1  0  0  0  0
 12 17  2  0  0  0  0
 17 18  1  0  0  0  0
 18 19  1  0  0  0  0
  1 20  1  0  0  0  0
  1 21  1  0  0  0  0
  1 22  1  0  0  0  0
  2 23  1  0  0  0  0
  2 24  1  0  0  0  0
  7 25  1  0  0  0  0
  7 26  1  0  0  0  0
  8 27  1  0  0  0  0
  8 28  1  0  0  0  0
  8 29  1  0  0  0  0
 10 30  1  0  0  0  0
 10 31  1  0  0  0  0
 15 32  1  0  0  0  0
 15 33  1  0  0  0  0
 16 34  1  0  0  0  0
 16 35  1  0  0  0  0
 16 36  1  0  0  0  0
 18 37  1  0  0  0  0
 18 38  1  0  0  0  0
 19 39  1  0  0  0  0
 19 40  1  0  0  0  0
 19 41  1  0  0  0  0
M  END
