 xtb: 6.7.1 (edcfbbe)
          04092505203D

 41 40  0     0  0            999 V2000
    3.9974   -1.0614   -2.6901 C   0  0  0  0  0  0  0  0  0  0  0  0
    4.2737   -1.6205   -1.3094 C   0  0  0  0  0  0  0  0  0  0  0  0
    3.0701   -1.7586   -0.5347 O   0  0  0  0  0  0  0  0  0  0  0  0
    2.2524   -0.5022   -0.0019 P   0  0  0  0  0  0  0  0  0  0  0  0
    3.3765    0.9937    0.5969 S   0  0  0  0  0  0  0  0  0  0  0  0
    1.3207   -1.1842    1.0818 O   0  0  0  0  0  0  0  0  0  0  0  0
    1.7818   -1.4539    2.4277 C   0  0  0  0  0  0  0  0  0  0  0  0
    1.3555   -0.3475    3.3722 C   0  0  0  0  0  0  0  0  0  0  0  0
    0.8196   -0.0928   -1.4956 S   0  0  0  0  0  0  0  0  0  0  0  0
    0.2813    1.4950   -0.8022 C   0  0  0  0  0  0  0  0  0  0  0  0
   -0.7296    1.3112    0.6842 S   0  0  0  0  0  0  0  0  0  0  0  0
   -2.4118    0.4409   -0.3011 P   0  0  0  0  0  0  0  0  0  0  0  0
   -2.8196    1.1486   -2.0760 S   0  0  0  0  0  0  0  0  0  0  0  0
   -3.5732    0.5399    0.7819 O   0  0  0  0  0  0  0  0  0  0  0  0
   -4.4393    1.6854    0.8919 C   0  0  0  0  0  0  0  0  0  0  0  0
   -3.6963    2.9325    1.3243 C   0  0  0  0  0  0  0  0  0  0  0  0
   -2.1358   -1.1112   -0.3328 O   0  0  0  0  0  0  0  0  0  0  0  0
   -1.9568   -1.9098    0.8639 C   0  0  0  0  0  0  0  0  0  0  0  0
   -1.3118   -3.2160    0.4509 C   0  0  0  0  0  0  0  0  0  0  0  0
    3.6477   -0.0325   -2.6119 H   0  0  0  0  0  0  0  0  0  0  0  0
    4.9107   -1.0790   -3.2760 H   0  0  0  0  0  0  0  0  0  0  0  0
    3.2340   -1.6512   -3.1916 H   0  0  0  0  0  0  0  0  0  0  0  0
    4.9642   -0.9701   -0.7628 H   0  0  0  0  0  0  0  0  0  0  0  0
    4.6741   -2.6340   -1.3562 H   0  0  0  0  0  0  0  0  0  0  0  0
    1.3192   -2.4067    2.6902 H   0  0  0  0  0  0  0  0  0  0  0  0
    2.8694   -1.5639    2.4201 H   0  0  0  0  0  0  0  0  0  0  0  0
    1.8298    0.5905    3.0922 H   0  0  0  0  0  0  0  0  0  0  0  0
    0.2781   -0.2108    3.3358 H   0  0  0  0  0  0  0  0  0  0  0  0
    1.6523   -0.6071    4.3832 H   0  0  0  0  0  0  0  0  0  0  0  0
   -0.3045    1.9891   -1.5775 H   0  0  0  0  0  0  0  0  0  0  0  0
    1.1546    2.0847   -0.5225 H   0  0  0  0  0  0  0  0  0  0  0  0
   -4.9242    1.8430   -0.0762 H   0  0  0  0  0  0  0  0  0  0  0  0
   -5.1785    1.3786    1.6331 H   0  0  0  0  0  0  0  0  0  0  0  0
   -3.1192    2.7382    2.2248 H   0  0  0  0  0  0  0  0  0  0  0  0
   -3.0191    3.2554    0.5352 H   0  0  0  0  0  0  0  0  0  0  0  0
   -4.4119    3.7251    1.5179 H   0  0  0  0  0  0  0  0  0  0  0  0
   -1.3244   -1.3538    1.5618 H   0  0  0  0  0  0  0  0  0  0  0  0
   -2.9404   -2.0659    1.3108 H   0  0  0  0  0  0  0  0  0  0  0  0
   -1.9191   -3.7064   -0.3044 H   0  0  0  0  0  0  0  0  0  0  0  0
   -0.3233   -3.0307    0.0375 H   0  0  0  0  0  0  0  0  0  0  0  0
   -1.2244   -3.8616    1.3190 H   0  0  0  0  0  0  0  0  0  0  0  0
  1  2  1  0  0  0  0
  2  3  1  0  0  0  0
  3  4  2  0  0  0  0
  4  5  2  0  0  0  0
  4  6  2  0  0  0  0
  6  7  1  0  0  0  0
  7  8  1  0  0  0  0
  4  9  1  0  0  0  0
  9 10  1  0  0  0  0
 10 11  1  0  0  0  0
 11 12  1  0  0  0  0
 12 13  2  0  0  0  0
 12 14  2  0  0  0  0
 14 15  1  0  0  0  0
 15 16  1  0  0  0  0
 12 17  2  0  0  0  0
 17 18  1  0  0  0  0
 18 19  1  0  0  0  0
  1 20  1  0  0  0  0
  1 21  1  0  0  0  0
  1 22  1  0  0  0  0
  2 23  1  0  0  0  0
  2 24  1  0  0  0  0
  7 25  1  0  0  0  0
  7 26  1  0  0  0  0
  8 27  1  0  0  0  0
  8 28  1  0  0  0  0
  8 29  1  0  0  0  0
 10 30  1  0  0  0  0
 10 31  1  0  0  0  0
 15 32  1  0  0  0  0
 15 33  1  0  0  0  0
 16 34  1  0  0  0  0
 16 35  1  0  0  0  0
 16 36  1  0  0  0  0
 18 37  1  0  0  0  0
 18 38  1  0  0  0  0
 19 39  1  0  0  0  0
 19 40  1  0  0  0  0
 19 41  1  0  0  0  0
M  END
