 xtb: 6.7.1 (edcfbbe)
          04092507313D

 38 37  0     0  0            999 V2000
    5.4245   -2.0208   -2.0414 C   0  0  0  0  0  0  0  0  0  0  0  0
    4.9449   -1.2317   -0.8335 C   0  0  0  0  0  0  0  0  0  0  0  0
    3.6386   -1.6723   -0.4139 O   0  0  0  0  0  0  0  0  0  0  0  0
    2.5818   -1.1461   -0.9984 C   0  0  0  0  0  0  0  0  0  0  0  0
    2.6180   -0.2888   -1.8524 O   0  0  0  0  0  0  0  0  0  0  0  0
    1.2984   -1.7612   -0.4675 C   0  0  0  0  0  0  0  0  0  0  0  0
    0.2587   -0.6667   -0.2766 C   0  0  0  0  0  0  0  0  0  0  0  0
    0.1989   -0.0549   -1.1878 H   0  0  0  0  0  0  0  0  0  0  0  0
    0.5836    0.2817    0.8593 C   0  0  0  0  0  0  0  0  0  0  0  0
   -0.2817    0.7704    1.5581 O   0  0  0  0  0  0  0  0  0  0  0  0
    1.8653    0.5043    0.9790 O   0  0  0  0  0  0  0  0  0  0  0  0
    2.3000    1.4894    1.9435 C   0  0  0  0  0  0  0  0  0  0  0  0
    2.2592    2.8814    1.3364 C   0  0  0  0  0  0  0  0  0  0  0  0
   -1.3975   -1.3565    0.0380 S   0  0  0  0  0  0  0  0  0  0  0  0
   -2.4867    0.4699    0.1213 P   0  0  0  0  0  0  0  0  0  0  0  0
   -1.7473    2.0074   -0.8401 S   0  0  0  0  0  0  0  0  0  0  0  0
   -3.8883   -0.0174   -0.5024 O   0  0  0  0  0  0  0  0  0  0  0  0
   -4.0142   -0.3498   -1.8870 C   0  0  0  0  0  0  0  0  0  0  0  0
   -2.9728    0.7670    1.5931 O   0  0  0  0  0  0  0  0  0  0  0  0
   -3.6357   -0.2260    2.4003 C   0  0  0  0  0  0  0  0  0  0  0  0
    4.7794   -1.8258   -2.8951 H   0  0  0  0  0  0  0  0  0  0  0  0
    6.4364   -1.7179   -2.2893 H   0  0  0  0  0  0  0  0  0  0  0  0
    5.4118   -3.0849   -1.8225 H   0  0  0  0  0  0  0  0  0  0  0  0
    4.8942   -0.1639   -1.0639 H   0  0  0  0  0  0  0  0  0  0  0  0
    5.5822   -1.4062    0.0333 H   0  0  0  0  0  0  0  0  0  0  0  0
    1.5039   -2.2892    0.4621 H   0  0  0  0  0  0  0  0  0  0  0  0
    0.9290   -2.4737   -1.2078 H   0  0  0  0  0  0  0  0  0  0  0  0
    1.6500    1.4267    2.8203 H   0  0  0  0  0  0  0  0  0  0  0  0
    3.3172    1.1893    2.1945 H   0  0  0  0  0  0  0  0  0  0  0  0
    2.8646    2.9158    0.4345 H   0  0  0  0  0  0  0  0  0  0  0  0
    1.2360    3.1482    1.0765 H   0  0  0  0  0  0  0  0  0  0  0  0
    2.6397    3.5997    2.0547 H   0  0  0  0  0  0  0  0  0  0  0  0
   -3.5246   -1.3033   -2.0854 H   0  0  0  0  0  0  0  0  0  0  0  0
   -3.5689    0.4339   -2.5024 H   0  0  0  0  0  0  0  0  0  0  0  0
   -5.0822   -0.4197   -2.0763 H   0  0  0  0  0  0  0  0  0  0  0  0
   -3.0209   -1.1239    2.4663 H   0  0  0  0  0  0  0  0  0  0  0  0
   -4.6055   -0.4660    1.9682 H   0  0  0  0  0  0  0  0  0  0  0  0
   -3.7469    0.2358    3.3779 H   0  0  0  0  0  0  0  0  0  0  0  0
  1  2  1  0  0  0  0
  2  3  1  0  0  0  0
  3  4  1  0  0  0  0
  4  5  2  0  0  0  0
  4  6  1  0  0  0  0
  6  7  1  0  0  0  0
  7  8  1  0  0  0  0
  7  9  1  0  0  0  0
  9 10  2  0  0  0  0
  9 11  4  0  0  0  0
 11 12  1  0  0  0  0
 12 13  1  0  0  0  0
  7 14  1  0  0  0  0
 14 15  1  0  0  0  0
 15 16  2  0  0  0  0
 15 17  1  0  0  0  0
 17 18  1  0  0  0  0
 15 19  2  0  0  0  0
 19 20  1  0  0  0  0
  1 21  1  0  0  0  0
  1 22  1  0  0  0  0
  1 23  1  0  0  0  0
  2 24  1  0  0  0  0
  2 25  1  0  0  0  0
  6 26  1  0  0  0  0
  6 27  1  0  0  0  0
 12 28  1  0  0  0  0
 12 29  1  0  0  0  0
 13 30  1  0  0  0  0
 13 31  1  0  0  0  0
 13 32  1  0  0  0  0
 18 33  1  0  0  0  0
 18 34  1  0  0  0  0
 18 35  1  0  0  0  0
 20 36  1  0  0  0  0
 20 37  1  0  0  0  0
 20 38  1  0  0  0  0
M  END
