  40
 
 C         -4.8476026333       -0.2567897975        0.3320006759
 N         -4.2796855184        1.0772334272        0.3857809429
 C         -5.2033571382        2.0506557830       -0.1678090238
 C         -2.9923552979        1.1489165258       -0.2817429772
 C         -1.9052175340        0.3863170764        0.4738524885
 O         -0.6547187178        0.8541370736        0.0133720536
 C          0.4459891186        0.2327159218        0.6569650060
 C          0.5958866084       -1.2262473389        0.2664707238
 C          0.9188119439       -2.1898032341        1.2113614459
 C          1.0828080725       -3.5110724433        0.8324223992
 C          0.9164929747       -3.8803243154       -0.4915794580
 C          0.5895440493       -2.9229194431       -1.4377055620
 C          0.4359614984       -1.6010754742       -1.0612100178
 C          1.7221942251        0.9479558486        0.2721403286
 C          2.8364892220        0.8565465000        1.0965298985
 C          4.0238263130        1.4675431688        0.7363633998
 C          4.1083687422        2.1765253656       -0.4505210857
 C          2.9996978602        2.2716196698       -1.2738783864
 C          1.8120300544        1.6569340691       -0.9167512937
 H         -4.1918881720       -0.9518535600        0.8505302449
 H         -4.9929693474       -0.6097148788       -0.7011203860
 H         -5.8113465377       -0.2482425234        0.8368049571
 H         -4.7797035240        3.0468350979       -0.0588409587
 H         -6.1366480693        2.0050623120        0.3893421564
 H         -5.4183417085        1.8724270400       -1.2325494009
 H         -2.6803577051        2.1954218218       -0.3129884338
 H         -3.0408329693        0.7779882717       -1.3211027409
 H         -1.9816104027       -0.6970581208        0.3073993476
 H         -2.0079285304        0.5824358990        1.5513675558
 H          0.3077250294        0.3000224639        1.7497502579
 H          1.0397194005       -1.9060468385        2.2469802760
 H          1.3353312287       -4.2539135750        1.5738722460
 H          1.0396447422       -4.9115893638       -0.7854743515
 H          0.4570853768       -3.2056401878       -2.4712143247
 H          0.1810207722       -0.8467186869       -1.7907358997
 H          2.7723916974        0.3049749282        2.0230482779
 H          4.8836071730        1.3927085209        1.3847890616
 H          5.0346082909        2.6547287827       -0.7306487796
 H          3.0586915198        2.8249072120       -2.1990687337
 H          0.9407406191        1.7343170239       -1.5476256796
          40
        -54.07624498
 C         -3.7790814224        0.3975682029        0.5713866706
 N         -2.7532917589        1.4179156554        0.4721875849
 C         -3.0907589365        2.5628309115        1.2981001472
 C         -2.5077905170        1.8146749114       -0.9083593418
 C         -1.6717753645        0.8018139383       -1.7021715125
 O         -0.2864744717        0.8872855007       -1.4468137123
 C          0.1018566881        0.4010185785       -0.1647848442
 C         -0.1020086193       -1.0975260208       -0.0470540617
 C          0.3781643472       -1.9379298898       -1.0431938541
 C          0.2051463631       -3.3067187911       -0.9455872706
 C         -0.4427056270       -3.8475682028        0.1530674978
 C         -0.9211544973       -3.0140393949        1.1498201007
 C         -0.7545285789       -1.6434234269        1.0490653005
 C          1.5664139853        0.6974761555        0.0609249647
 C          2.0917606013        0.5827666785        1.3426412149
 C          3.4364820819        0.8100539251        1.5696794748
 C          4.2704849711        1.1560044305        0.5187161328
 C          3.7514506913        1.2728478268       -0.7588486457
 C          2.4058062208        1.0411508886       -0.9884034099
 H         -3.8908041269        0.1108127588        1.6151954263
 H         -3.4814957523       -0.4816932530        0.0046083936
 H         -4.7529926351        0.7481219345        0.1945328048
 H         -2.2726213626        3.2805370528        1.2693109386
 H         -3.2237301833        2.2277887602        2.3251344238
 H         -4.0139663544        3.0640938231        0.9698329075
 H         -1.9501674906        2.7544282922       -0.8990571964
 H         -3.4562508124        1.9833255444       -1.4479137836
 H         -1.7656431015        1.0278390401       -2.7670567319
 H         -2.0247219525       -0.2219267742       -1.5264189487
 H         -0.4982857047        0.9024931345        0.6069007687
 H          0.8801665024       -1.5055803434       -1.8963578577
 H          0.5781300086       -3.9525432017       -1.7264422540
 H         -0.5760733240       -4.9161533998        0.2301340900
 H         -1.4303893951       -3.4318708339        2.0052912772
 H         -1.1390410091       -0.9905669305        1.8184554448
 H          1.4417107401        0.3118376653        2.1615798409
 H          3.8353721899        0.7188300170        2.5688250132
 H          5.3203143363        1.3345209739        0.6962921349
 H          4.3958760143        1.5434411638       -1.5820687319
 H          1.9917602607        1.1357167880       -1.9799666553
