 xtb: 6.7.1 (edcfbbe)
          04092505203D

 41 40  0     0  0            999 V2000
    4.5530   -1.7308   -0.5208 C   0  0  0  0  0  0  0  0  0  0  0  0
    4.6072   -0.2411   -0.2512 C   0  0  0  0  0  0  0  0  0  0  0  0
    3.4599    0.2168    0.4841 O   0  0  0  0  0  0  0  0  0  0  0  0
    2.0072    0.3009   -0.1638 P   0  0  0  0  0  0  0  0  0  0  0  0
    2.0267    0.8109   -2.0630 S   0  0  0  0  0  0  0  0  0  0  0  0
    1.2655    1.1951    0.9121 O   0  0  0  0  0  0  0  0  0  0  0  0
    1.7296    2.4714    1.3972 C   0  0  0  0  0  0  0  0  0  0  0  0
    1.8867    3.4921    0.2896 C   0  0  0  0  0  0  0  0  0  0  0  0
    1.1261   -1.5614    0.2558 S   0  0  0  0  0  0  0  0  0  0  0  0
   -0.0281   -1.7112   -1.1504 C   0  0  0  0  0  0  0  0  0  0  0  0
   -1.7436   -1.8807   -0.6293 S   0  0  0  0  0  0  0  0  0  0  0  0
   -2.0065    0.0653    0.1957 P   0  0  0  0  0  0  0  0  0  0  0  0
   -1.3341    1.5185   -0.9350 S   0  0  0  0  0  0  0  0  0  0  0  0
   -1.3237    0.1474    1.6142 O   0  0  0  0  0  0  0  0  0  0  0  0
   -1.7894   -0.4743    2.8386 C   0  0  0  0  0  0  0  0  0  0  0  0
   -1.7286   -1.9873    2.7940 C   0  0  0  0  0  0  0  0  0  0  0  0
   -3.5461    0.0818    0.5840 O   0  0  0  0  0  0  0  0  0  0  0  0
   -4.6228   -0.3469   -0.2711 C   0  0  0  0  0  0  0  0  0  0  0  0
   -4.6486    0.3863   -1.5954 C   0  0  0  0  0  0  0  0  0  0  0  0
    4.3783   -2.2765    0.4029 H   0  0  0  0  0  0  0  0  0  0  0  0
    3.7468   -1.9519   -1.2186 H   0  0  0  0  0  0  0  0  0  0  0  0
    5.4936   -2.0497   -0.9581 H   0  0  0  0  0  0  0  0  0  0  0  0
    4.6596    0.3172   -1.1916 H   0  0  0  0  0  0  0  0  0  0  0  0
    5.4504    0.0238    0.3882 H   0  0  0  0  0  0  0  0  0  0  0  0
    0.9502    2.7691    2.1014 H   0  0  0  0  0  0  0  0  0  0  0  0
    2.6732    2.3125    1.9248 H   0  0  0  0  0  0  0  0  0  0  0  0
    2.6873    3.1967   -0.3875 H   0  0  0  0  0  0  0  0  0  0  0  0
    0.9634    3.5654   -0.2832 H   0  0  0  0  0  0  0  0  0  0  0  0
    2.1219    4.4609    0.7187 H   0  0  0  0  0  0  0  0  0  0  0  0
    0.2110   -2.6230   -1.6916 H   0  0  0  0  0  0  0  0  0  0  0  0
    0.0877   -0.8304   -1.7892 H   0  0  0  0  0  0  0  0  0  0  0  0
   -1.1075   -0.0718    3.5895 H   0  0  0  0  0  0  0  0  0  0  0  0
   -2.8051   -0.1247    3.0314 H   0  0  0  0  0  0  0  0  0  0  0  0
   -1.9410   -2.3738    3.7860 H   0  0  0  0  0  0  0  0  0  0  0  0
   -2.4632   -2.3829    2.0966 H   0  0  0  0  0  0  0  0  0  0  0  0
   -0.7383   -2.3177    2.4875 H   0  0  0  0  0  0  0  0  0  0  0  0
   -4.5247   -1.4243   -0.4287 H   0  0  0  0  0  0  0  0  0  0  0  0
   -5.5163   -0.1355    0.3191 H   0  0  0  0  0  0  0  0  0  0  0  0
   -4.6826    1.4614   -1.4348 H   0  0  0  0  0  0  0  0  0  0  0  0
   -3.7531    0.1557   -2.1708 H   0  0  0  0  0  0  0  0  0  0  0  0
   -5.5217    0.0783   -2.1613 H   0  0  0  0  0  0  0  0  0  0  0  0
  1  2  1  0  0  0  0
  2  3  1  0  0  0  0
  3  4  2  0  0  0  0
  4  5  2  0  0  0  0
  4  6  2  0  0  0  0
  6  7  1  0  0  0  0
  7  8  1  0  0  0  0
  4  9  1  0  0  0  0
  9 10  1  0  0  0  0
 10 11  1  0  0  0  0
 11 12  1  0  0  0  0
 12 13  2  0  0  0  0
 12 14  2  0  0  0  0
 14 15  1  0  0  0  0
 15 16  1  0  0  0  0
 12 17  2  0  0  0  0
 17 18  1  0  0  0  0
 18 19  1  0  0  0  0
  1 20  1  0  0  0  0
  1 21  1  0  0  0  0
  1 22  1  0  0  0  0
  2 23  1  0  0  0  0
  2 24  1  0  0  0  0
  7 25  1  0  0  0  0
  7 26  1  0  0  0  0
  8 27  1  0  0  0  0
  8 28  1  0  0  0  0
  8 29  1  0  0  0  0
 10 30  1  0  0  0  0
 10 31  1  0  0  0  0
 15 32  1  0  0  0  0
 15 33  1  0  0  0  0
 16 34  1  0  0  0  0
 16 35  1  0  0  0  0
 16 36  1  0  0  0  0
 18 37  1  0  0  0  0
 18 38  1  0  0  0  0
 19 39  1  0  0  0  0
 19 40  1  0  0  0  0
 19 41  1  0  0  0  0
M  END
