 xtb: 6.7.1 (edcfbbe)
          04092514013D

 41 40  0     0  0            999 V2000
    2.0064    0.5549   -3.1055 C   0  0  0  0  0  0  0  0  0  0  0  0
    1.5798   -0.7105   -2.3882 C   0  0  0  0  0  0  0  0  0  0  0  0
    2.5305   -1.0953   -1.3820 O   0  0  0  0  0  0  0  0  0  0  0  0
    2.4631   -0.5950    0.1199 P   0  0  0  0  0  0  0  0  0  0  0  0
    2.7839    1.3059    0.4997 S   0  0  0  0  0  0  0  0  0  0  0  0
    3.5853   -1.5824    0.6387 O   0  0  0  0  0  0  0  0  0  0  0  0
    4.3336   -1.3434    1.8426 C   0  0  0  0  0  0  0  0  0  0  0  0
    3.4834   -1.5251    3.0845 C   0  0  0  0  0  0  0  0  0  0  0  0
    0.6026   -1.3765    0.8090 S   0  0  0  0  0  0  0  0  0  0  0  0
   -0.0225    0.0596    1.7569 C   0  0  0  0  0  0  0  0  0  0  0  0
   -1.8259    0.0705    1.8258 S   0  0  0  0  0  0  0  0  0  0  0  0
   -2.2173    0.5849   -0.1742 P   0  0  0  0  0  0  0  0  0  0  0  0
   -0.9567    1.7956   -1.0779 S   0  0  0  0  0  0  0  0  0  0  0  0
   -3.7335    1.0695   -0.1818 O   0  0  0  0  0  0  0  0  0  0  0  0
   -4.1329    2.4431   -0.0301 C   0  0  0  0  0  0  0  0  0  0  0  0
   -3.8493    2.9820    1.3572 C   0  0  0  0  0  0  0  0  0  0  0  0
   -2.3491   -0.8577   -0.8147 O   0  0  0  0  0  0  0  0  0  0  0  0
   -2.4913   -1.0453   -2.2426 C   0  0  0  0  0  0  0  0  0  0  0  0
   -2.0859   -2.4676   -2.5707 C   0  0  0  0  0  0  0  0  0  0  0  0
    2.0065    1.3983   -2.4173 H   0  0  0  0  0  0  0  0  0  0  0  0
    3.0044    0.4346   -3.5171 H   0  0  0  0  0  0  0  0  0  0  0  0
    1.3052    0.7644   -3.9072 H   0  0  0  0  0  0  0  0  0  0  0  0
    1.5476   -1.5616   -3.0716 H   0  0  0  0  0  0  0  0  0  0  0  0
    0.5964   -0.5753   -1.9258 H   0  0  0  0  0  0  0  0  0  0  0  0
    5.1413   -2.0756    1.7986 H   0  0  0  0  0  0  0  0  0  0  0  0
    4.7482   -0.3308    1.8040 H   0  0  0  0  0  0  0  0  0  0  0  0
    2.7256   -0.7438    3.1288 H   0  0  0  0  0  0  0  0  0  0  0  0
    2.9942   -2.4957    3.0694 H   0  0  0  0  0  0  0  0  0  0  0  0
    4.1133   -1.4524    3.9656 H   0  0  0  0  0  0  0  0  0  0  0  0
    0.3458    0.9753    1.2857 H   0  0  0  0  0  0  0  0  0  0  0  0
    0.3125   -0.0126    2.7888 H   0  0  0  0  0  0  0  0  0  0  0  0
   -3.6125    3.0382   -0.7871 H   0  0  0  0  0  0  0  0  0  0  0  0
   -5.2033    2.4267   -0.2417 H   0  0  0  0  0  0  0  0  0  0  0  0
   -4.2490    3.9886    1.4348 H   0  0  0  0  0  0  0  0  0  0  0  0
   -4.3090    2.3515    2.1138 H   0  0  0  0  0  0  0  0  0  0  0  0
   -2.7750    3.0160    1.5335 H   0  0  0  0  0  0  0  0  0  0  0  0
   -3.5342   -0.8551   -2.5070 H   0  0  0  0  0  0  0  0  0  0  0  0
   -1.8547   -0.3151   -2.7557 H   0  0  0  0  0  0  0  0  0  0  0  0
   -2.1717   -2.6243   -3.6412 H   0  0  0  0  0  0  0  0  0  0  0  0
   -1.0596   -2.6471   -2.2613 H   0  0  0  0  0  0  0  0  0  0  0  0
   -2.7329   -3.1668   -2.0496 H   0  0  0  0  0  0  0  0  0  0  0  0
  1  2  1  0  0  0  0
  2  3  1  0  0  0  0
  3  4  2  0  0  0  0
  4  5  2  0  0  0  0
  4  6  2  0  0  0  0
  6  7  1  0  0  0  0
  7  8  1  0  0  0  0
  4  9  1  0  0  0  0
  9 10  1  0  0  0  0
 10 11  1  0  0  0  0
 11 12  1  0  0  0  0
 12 13  2  0  0  0  0
 12 14  2  0  0  0  0
 14 15  1  0  0  0  0
 15 16  1  0  0  0  0
 12 17  2  0  0  0  0
 17 18  1  0  0  0  0
 18 19  1  0  0  0  0
  1 20  1  0  0  0  0
  1 21  1  0  0  0  0
  1 22  1  0  0  0  0
  2 23  1  0  0  0  0
  2 24  1  0  0  0  0
  7 25  1  0  0  0  0
  7 26  1  0  0  0  0
  8 27  1  0  0  0  0
  8 28  1  0  0  0  0
  8 29  1  0  0  0  0
 10 30  1  0  0  0  0
 10 31  1  0  0  0  0
 15 32  1  0  0  0  0
 15 33  1  0  0  0  0
 16 34  1  0  0  0  0
 16 35  1  0  0  0  0
 16 36  1  0  0  0  0
 18 37  1  0  0  0  0
 18 38  1  0  0  0  0
 19 39  1  0  0  0  0
 19 40  1  0  0  0  0
 19 41  1  0  0  0  0
M  END
