 xtb: 6.7.1 (edcfbbe)
          04092505213D

 41 40  0     0  0            999 V2000
    1.4032   -1.7395   -2.4921 C   0  0  0  0  0  0  0  0  0  0  0  0
    2.0489   -0.3699   -2.5087 C   0  0  0  0  0  0  0  0  0  0  0  0
    1.7904    0.3877   -1.3005 O   0  0  0  0  0  0  0  0  0  0  0  0
    2.1820   -0.0510    0.1601 P   0  0  0  0  0  0  0  0  0  0  0  0
    2.3629    1.4650    1.3867 S   0  0  0  0  0  0  0  0  0  0  0  0
    3.5025   -0.8926   -0.1245 O   0  0  0  0  0  0  0  0  0  0  0  0
    4.2640   -1.5363    0.9152 C   0  0  0  0  0  0  0  0  0  0  0  0
    5.3491   -0.6225    1.4499 C   0  0  0  0  0  0  0  0  0  0  0  0
    0.8372   -1.5652    0.8409 S   0  0  0  0  0  0  0  0  0  0  0  0
   -0.1092   -0.6534    2.0940 C   0  0  0  0  0  0  0  0  0  0  0  0
   -1.8926   -0.7504    1.8141 S   0  0  0  0  0  0  0  0  0  0  0  0
   -2.0038    0.2872   -0.0261 P   0  0  0  0  0  0  0  0  0  0  0  0
   -0.8349    1.8675   -0.1540 S   0  0  0  0  0  0  0  0  0  0  0  0
   -3.5528    0.5892   -0.1793 O   0  0  0  0  0  0  0  0  0  0  0  0
   -4.1818    1.6748    0.5316 C   0  0  0  0  0  0  0  0  0  0  0  0
   -5.4571    2.0365   -0.2027 C   0  0  0  0  0  0  0  0  0  0  0  0
   -1.7796   -0.8616   -1.0916 O   0  0  0  0  0  0  0  0  0  0  0  0
   -2.5102   -0.9571   -2.3389 C   0  0  0  0  0  0  0  0  0  0  0  0
   -2.1924    0.1993   -3.2631 C   0  0  0  0  0  0  0  0  0  0  0  0
    0.3468   -1.6556   -2.2506 H   0  0  0  0  0  0  0  0  0  0  0  0
    1.5153   -2.1965   -3.4703 H   0  0  0  0  0  0  0  0  0  0  0  0
    1.8773   -2.3740   -1.7454 H   0  0  0  0  0  0  0  0  0  0  0  0
    1.6292    0.2677   -3.2893 H   0  0  0  0  0  0  0  0  0  0  0  0
    3.1304   -0.4464   -2.6352 H   0  0  0  0  0  0  0  0  0  0  0  0
    3.5861   -1.8517    1.7131 H   0  0  0  0  0  0  0  0  0  0  0  0
    4.6918   -2.4166    0.4312 H   0  0  0  0  0  0  0  0  0  0  0  0
    5.9962   -0.2960    0.6405 H   0  0  0  0  0  0  0  0  0  0  0  0
    4.9073    0.2545    1.9177 H   0  0  0  0  0  0  0  0  0  0  0  0
    5.9374   -1.1599    2.1866 H   0  0  0  0  0  0  0  0  0  0  0  0
    0.2217    0.3899    2.0854 H   0  0  0  0  0  0  0  0  0  0  0  0
    0.0656   -1.1104    3.0648 H   0  0  0  0  0  0  0  0  0  0  0  0
   -4.3885    1.3363    1.5498 H   0  0  0  0  0  0  0  0  0  0  0  0
   -3.4837    2.5181    0.5681 H   0  0  0  0  0  0  0  0  0  0  0  0
   -5.2293    2.3742   -1.2099 H   0  0  0  0  0  0  0  0  0  0  0  0
   -6.1108    1.1710   -0.2584 H   0  0  0  0  0  0  0  0  0  0  0  0
   -5.9610    2.8331    0.3346 H   0  0  0  0  0  0  0  0  0  0  0  0
   -2.1828   -1.9118   -2.7540 H   0  0  0  0  0  0  0  0  0  0  0  0
   -3.5763   -0.9961   -2.1110 H   0  0  0  0  0  0  0  0  0  0  0  0
   -2.4938    1.1380   -2.7992 H   0  0  0  0  0  0  0  0  0  0  0  0
   -1.1244    0.2466   -3.4621 H   0  0  0  0  0  0  0  0  0  0  0  0
   -2.7280    0.0745   -4.1988 H   0  0  0  0  0  0  0  0  0  0  0  0
  1  2  1  0  0  0  0
  2  3  1  0  0  0  0
  3  4  2  0  0  0  0
  4  5  2  0  0  0  0
  4  6  2  0  0  0  0
  6  7  1  0  0  0  0
  7  8  1  0  0  0  0
  4  9  1  0  0  0  0
  9 10  1  0  0  0  0
 10 11  1  0  0  0  0
 11 12  1  0  0  0  0
 12 13  2  0  0  0  0
 12 14  2  0  0  0  0
 14 15  1  0  0  0  0
 15 16  1  0  0  0  0
 12 17  2  0  0  0  0
 17 18  1  0  0  0  0
 18 19  1  0  0  0  0
  1 20  1  0  0  0  0
  1 21  1  0  0  0  0
  1 22  1  0  0  0  0
  2 23  1  0  0  0  0
  2 24  1  0  0  0  0
  7 25  1  0  0  0  0
  7 26  1  0  0  0  0
  8 27  1  0  0  0  0
  8 28  1  0  0  0  0
  8 29  1  0  0  0  0
 10 30  1  0  0  0  0
 10 31  1  0  0  0  0
 15 32  1  0  0  0  0
 15 33  1  0  0  0  0
 16 34  1  0  0  0  0
 16 35  1  0  0  0  0
 16 36  1  0  0  0  0
 18 37  1  0  0  0  0
 18 38  1  0  0  0  0
 19 39  1  0  0  0  0
 19 40  1  0  0  0  0
 19 41  1  0  0  0  0
M  END
