 xtb: 6.7.1 (edcfbbe)
          04092505213D

 41 40  0     0  0            999 V2000
    3.7321   -0.7340   -2.7661 C   0  0  0  0  0  0  0  0  0  0  0  0
    4.5277   -1.0054   -1.5043 C   0  0  0  0  0  0  0  0  0  0  0  0
    3.6937   -1.3884   -0.3973 O   0  0  0  0  0  0  0  0  0  0  0  0
    2.6772   -0.3839    0.2872 P   0  0  0  0  0  0  0  0  0  0  0  0
    3.2939    1.4713    0.4727 S   0  0  0  0  0  0  0  0  0  0  0  0
    2.5094   -1.2210    1.6203 O   0  0  0  0  0  0  0  0  0  0  0  0
    2.1072   -0.6410    2.8740 C   0  0  0  0  0  0  0  0  0  0  0  0
    0.6732   -0.1520    2.8510 C   0  0  0  0  0  0  0  0  0  0  0  0
    0.8579   -0.6852   -0.7940 S   0  0  0  0  0  0  0  0  0  0  0  0
    0.3620    1.0335   -1.0878 C   0  0  0  0  0  0  0  0  0  0  0  0
   -0.8725    1.6586    0.0848 S   0  0  0  0  0  0  0  0  0  0  0  0
   -2.4193    0.3317   -0.4634 P   0  0  0  0  0  0  0  0  0  0  0  0
   -2.6221   -0.0505   -2.3675 S   0  0  0  0  0  0  0  0  0  0  0  0
   -3.7411    0.9549    0.1475 O   0  0  0  0  0  0  0  0  0  0  0  0
   -3.9186    1.2287    1.5605 C   0  0  0  0  0  0  0  0  0  0  0  0
   -3.6643    2.6915    1.8636 C   0  0  0  0  0  0  0  0  0  0  0  0
   -2.0412   -0.9200    0.4649 O   0  0  0  0  0  0  0  0  0  0  0  0
   -2.3530   -2.2693    0.0783 C   0  0  0  0  0  0  0  0  0  0  0  0
   -3.8342   -2.5545    0.2225 C   0  0  0  0  0  0  0  0  0  0  0  0
    3.1309    0.1663   -2.6452 H   0  0  0  0  0  0  0  0  0  0  0  0
    4.4163   -0.5884   -3.5960 H   0  0  0  0  0  0  0  0  0  0  0  0
    3.0728   -1.5702   -2.9856 H   0  0  0  0  0  0  0  0  0  0  0  0
    5.1031   -0.1199   -1.2154 H   0  0  0  0  0  0  0  0  0  0  0  0
    5.1985   -1.8565   -1.6301 H   0  0  0  0  0  0  0  0  0  0  0  0
    2.2445   -1.4541    3.5885 H   0  0  0  0  0  0  0  0  0  0  0  0
    2.7880    0.1819    3.1131 H   0  0  0  0  0  0  0  0  0  0  0  0
    0.3726    0.1291    3.8553 H   0  0  0  0  0  0  0  0  0  0  0  0
    0.5861    0.7202    2.2040 H   0  0  0  0  0  0  0  0  0  0  0  0
    0.0108   -0.9319    2.4817 H   0  0  0  0  0  0  0  0  0  0  0  0
   -0.0615    1.0748   -2.0903 H   0  0  0  0  0  0  0  0  0  0  0  0
    1.2320    1.6854   -0.9879 H   0  0  0  0  0  0  0  0  0  0  0  0
   -4.9583    0.9608    1.7571 H   0  0  0  0  0  0  0  0  0  0  0  0
   -3.2519    0.5818    2.1353 H   0  0  0  0  0  0  0  0  0  0  0  0
   -4.2943    3.3158    1.2362 H   0  0  0  0  0  0  0  0  0  0  0  0
   -3.8960    2.8822    2.9068 H   0  0  0  0  0  0  0  0  0  0  0  0
   -2.6231    2.9465    1.6777 H   0  0  0  0  0  0  0  0  0  0  0  0
   -2.0271   -2.4198   -0.9558 H   0  0  0  0  0  0  0  0  0  0  0  0
   -1.7505   -2.8882    0.7447 H   0  0  0  0  0  0  0  0  0  0  0  0
   -4.0310   -3.5871   -0.0474 H   0  0  0  0  0  0  0  0  0  0  0  0
   -4.1573   -2.3810    1.2457 H   0  0  0  0  0  0  0  0  0  0  0  0
   -4.3981   -1.9013   -0.4434 H   0  0  0  0  0  0  0  0  0  0  0  0
  1  2  1  0  0  0  0
  2  3  1  0  0  0  0
  3  4  2  0  0  0  0
  4  5  2  0  0  0  0
  4  6  2  0  0  0  0
  6  7  1  0  0  0  0
  7  8  1  0  0  0  0
  4  9  1  0  0  0  0
  9 10  1  0  0  0  0
 10 11  1  0  0  0  0
 11 12  1  0  0  0  0
 12 13  2  0  0  0  0
 12 14  2  0  0  0  0
 14 15  1  0  0  0  0
 15 16  1  0  0  0  0
 12 17  1  0  0  0  0
 17 18  1  0  0  0  0
 18 19  1  0  0  0  0
  1 20  1  0  0  0  0
  1 21  1  0  0  0  0
  1 22  1  0  0  0  0
  2 23  1  0  0  0  0
  2 24  1  0  0  0  0
  7 25  1  0  0  0  0
  7 26  1  0  0  0  0
  8 27  1  0  0  0  0
  8 28  1  0  0  0  0
  8 29  1  0  0  0  0
 10 30  1  0  0  0  0
 10 31  1  0  0  0  0
 15 32  1  0  0  0  0
 15 33  1  0  0  0  0
 16 34  1  0  0  0  0
 16 35  1  0  0  0  0
 16 36  1  0  0  0  0
 18 37  1  0  0  0  0
 18 38  1  0  0  0  0
 19 39  1  0  0  0  0
 19 40  1  0  0  0  0
 19 41  1  0  0  0  0
M  END
