 xtb: 6.7.1 (edcfbbe)
          04092505213D

 41 40  0     0  0            999 V2000
    0.8213   -2.8869    1.3329 C   0  0  0  0  0  0  0  0  0  0  0  0
    2.1894   -2.3778    1.7392 C   0  0  0  0  0  0  0  0  0  0  0  0
    2.4053   -1.0193    1.3150 O   0  0  0  0  0  0  0  0  0  0  0  0
    2.6794   -0.6556   -0.2047 P   0  0  0  0  0  0  0  0  0  0  0  0
    3.6529   -1.9817   -1.2634 S   0  0  0  0  0  0  0  0  0  0  0  0
    3.4382    0.7128    0.0855 O   0  0  0  0  0  0  0  0  0  0  0  0
    4.3147    1.3073   -0.8863 C   0  0  0  0  0  0  0  0  0  0  0  0
    3.5584    1.8687   -2.0745 C   0  0  0  0  0  0  0  0  0  0  0  0
    0.7875   -0.0466   -0.9784 S   0  0  0  0  0  0  0  0  0  0  0  0
    0.3253    1.0702    0.3854 C   0  0  0  0  0  0  0  0  0  0  0  0
   -0.9952    0.3979    1.4177 S   0  0  0  0  0  0  0  0  0  0  0  0
   -2.5665    0.7929    0.0313 P   0  0  0  0  0  0  0  0  0  0  0  0
   -2.4697    2.5177   -0.8840 S   0  0  0  0  0  0  0  0  0  0  0  0
   -3.8907    0.5028    0.8631 O   0  0  0  0  0  0  0  0  0  0  0  0
   -4.5515    1.5047    1.6583 C   0  0  0  0  0  0  0  0  0  0  0  0
   -3.6990    1.9775    2.8176 C   0  0  0  0  0  0  0  0  0  0  0  0
   -2.5469   -0.4098   -0.9860 O   0  0  0  0  0  0  0  0  0  0  0  0
   -2.6769   -1.7972   -0.5820 C   0  0  0  0  0  0  0  0  0  0  0  0
   -2.0195   -2.6539   -1.6435 C   0  0  0  0  0  0  0  0  0  0  0  0
    0.7477   -2.9195    0.2462 H   0  0  0  0  0  0  0  0  0  0  0  0
    0.6798   -3.8887    1.7254 H   0  0  0  0  0  0  0  0  0  0  0  0
    0.0475   -2.2323    1.7267 H   0  0  0  0  0  0  0  0  0  0  0  0
    2.9776   -3.0051    1.3106 H   0  0  0  0  0  0  0  0  0  0  0  0
    2.2969   -2.3336    2.8237 H   0  0  0  0  0  0  0  0  0  0  0  0
    4.8302    2.0917   -0.3301 H   0  0  0  0  0  0  0  0  0  0  0  0
    5.0343    0.5505   -1.2143 H   0  0  0  0  0  0  0  0  0  0  0  0
    3.0796    1.0613   -2.6281 H   0  0  0  0  0  0  0  0  0  0  0  0
    2.7954    2.5709   -1.7468 H   0  0  0  0  0  0  0  0  0  0  0  0
    4.2540    2.3798   -2.7324 H   0  0  0  0  0  0  0  0  0  0  0  0
   -0.0282    2.0008   -0.0612 H   0  0  0  0  0  0  0  0  0  0  0  0
    1.1896    1.2345    1.0242 H   0  0  0  0  0  0  0  0  0  0  0  0
   -4.8135    2.3434    1.0062 H   0  0  0  0  0  0  0  0  0  0  0  0
   -5.4578    1.0038    2.0016 H   0  0  0  0  0  0  0  0  0  0  0  0
   -3.3439    1.1298    3.3983 H   0  0  0  0  0  0  0  0  0  0  0  0
   -2.8409    2.5354    2.4459 H   0  0  0  0  0  0  0  0  0  0  0  0
   -4.2906    2.6283    3.4535 H   0  0  0  0  0  0  0  0  0  0  0  0
   -2.1972   -1.9263    0.3925 H   0  0  0  0  0  0  0  0  0  0  0  0
   -3.7425   -2.0145   -0.4900 H   0  0  0  0  0  0  0  0  0  0  0  0
   -2.0975   -3.6982   -1.3592 H   0  0  0  0  0  0  0  0  0  0  0  0
   -2.5088   -2.5020   -2.6011 H   0  0  0  0  0  0  0  0  0  0  0  0
   -0.9713   -2.3841   -1.7484 H   0  0  0  0  0  0  0  0  0  0  0  0
  1  2  1  0  0  0  0
  2  3  1  0  0  0  0
  3  4  2  0  0  0  0
  4  5  2  0  0  0  0
  4  6  2  0  0  0  0
  6  7  1  0  0  0  0
  7  8  1  0  0  0  0
  4  9  1  0  0  0  0
  9 10  1  0  0  0  0
 10 11  1  0  0  0  0
 11 12  1  0  0  0  0
 12 13  2  0  0  0  0
 12 14  2  0  0  0  0
 14 15  1  0  0  0  0
 15 16  1  0  0  0  0
 12 17  2  0  0  0  0
 17 18  1  0  0  0  0
 18 19  1  0  0  0  0
  1 20  1  0  0  0  0
  1 21  1  0  0  0  0
  1 22  1  0  0  0  0
  2 23  1  0  0  0  0
  2 24  1  0  0  0  0
  7 25  1  0  0  0  0
  7 26  1  0  0  0  0
  8 27  1  0  0  0  0
  8 28  1  0  0  0  0
  8 29  1  0  0  0  0
 10 30  1  0  0  0  0
 10 31  1  0  0  0  0
 15 32  1  0  0  0  0
 15 33  1  0  0  0  0
 16 34  1  0  0  0  0
 16 35  1  0  0  0  0
 16 36  1  0  0  0  0
 18 37  1  0  0  0  0
 18 38  1  0  0  0  0
 19 39  1  0  0  0  0
 19 40  1  0  0  0  0
 19 41  1  0  0  0  0
M  END
