 xtb: 6.7.1 (edcfbbe)
          04092505203D

 41 40  0     0  0            999 V2000
    5.1514   -1.5553   -0.8563 C   0  0  0  0  0  0  0  0  0  0  0  0
    4.4549   -0.5948   -1.7973 C   0  0  0  0  0  0  0  0  0  0  0  0
    3.0854   -0.3561   -1.4112 O   0  0  0  0  0  0  0  0  0  0  0  0
    2.7152    0.4204   -0.0758 P   0  0  0  0  0  0  0  0  0  0  0  0
    3.9237    1.8613    0.4665 S   0  0  0  0  0  0  0  0  0  0  0  0
    2.5829   -0.7847    0.9600 O   0  0  0  0  0  0  0  0  0  0  0  0
    2.6202   -0.5778    2.3820 C   0  0  0  0  0  0  0  0  0  0  0  0
    1.3740    0.1224    2.8837 C   0  0  0  0  0  0  0  0  0  0  0  0
    0.7394    0.9697   -0.5893 S   0  0  0  0  0  0  0  0  0  0  0  0
    0.0579   -0.7080   -0.8550 C   0  0  0  0  0  0  0  0  0  0  0  0
   -1.1768   -1.1476    0.3816 S   0  0  0  0  0  0  0  0  0  0  0  0
   -2.7427    0.0668   -0.4037 P   0  0  0  0  0  0  0  0  0  0  0  0
   -2.8139    0.1904   -2.3569 S   0  0  0  0  0  0  0  0  0  0  0  0
   -2.5791    1.4933    0.2443 O   0  0  0  0  0  0  0  0  0  0  0  0
   -2.1619    1.8026    1.5961 C   0  0  0  0  0  0  0  0  0  0  0  0
   -2.9562    1.0595    2.6476 C   0  0  0  0  0  0  0  0  0  0  0  0
   -4.0644   -0.4888    0.2804 O   0  0  0  0  0  0  0  0  0  0  0  0
   -4.8420   -1.5559   -0.2894 C   0  0  0  0  0  0  0  0  0  0  0  0
   -4.1023   -2.8783   -0.2763 C   0  0  0  0  0  0  0  0  0  0  0  0
    6.1389   -1.7838   -1.2450 H   0  0  0  0  0  0  0  0  0  0  0  0
    5.2561   -1.0988    0.1269 H   0  0  0  0  0  0  0  0  0  0  0  0
    4.5787   -2.4740   -0.7610 H   0  0  0  0  0  0  0  0  0  0  0  0
    4.3723   -1.0007   -2.8065 H   0  0  0  0  0  0  0  0  0  0  0  0
    4.9780    0.3662   -1.8243 H   0  0  0  0  0  0  0  0  0  0  0  0
    2.7111   -1.5840    2.7925 H   0  0  0  0  0  0  0  0  0  0  0  0
    3.5126    0.0095    2.6214 H   0  0  0  0  0  0  0  0  0  0  0  0
    1.4155    0.2008    3.9651 H   0  0  0  0  0  0  0  0  0  0  0  0
    1.3239    1.1258    2.4596 H   0  0  0  0  0  0  0  0  0  0  0  0
    0.4861   -0.4363    2.5961 H   0  0  0  0  0  0  0  0  0  0  0  0
    0.8614   -1.4356   -0.7941 H   0  0  0  0  0  0  0  0  0  0  0  0
   -0.4141   -0.7102   -1.8385 H   0  0  0  0  0  0  0  0  0  0  0  0
   -1.0944    1.5815    1.6763 H   0  0  0  0  0  0  0  0  0  0  0  0
   -2.3135    2.8811    1.6604 H   0  0  0  0  0  0  0  0  0  0  0  0
   -2.6485    1.4046    3.6299 H   0  0  0  0  0  0  0  0  0  0  0  0
   -4.0190    1.2451    2.5167 H   0  0  0  0  0  0  0  0  0  0  0  0
   -2.7746   -0.0109    2.5736 H   0  0  0  0  0  0  0  0  0  0  0  0
   -5.7352   -1.5877    0.3361 H   0  0  0  0  0  0  0  0  0  0  0  0
   -5.1143   -1.2780   -1.3125 H   0  0  0  0  0  0  0  0  0  0  0  0
   -3.2626   -2.8424   -0.9683 H   0  0  0  0  0  0  0  0  0  0  0  0
   -3.7288   -3.0944    0.7213 H   0  0  0  0  0  0  0  0  0  0  0  0
   -4.7782   -3.6684   -0.5875 H   0  0  0  0  0  0  0  0  0  0  0  0
  1  2  1  0  0  0  0
  2  3  1  0  0  0  0
  3  4  2  0  0  0  0
  4  5  2  0  0  0  0
  4  6  2  0  0  0  0
  6  7  1  0  0  0  0
  7  8  1  0  0  0  0
  4  9  1  0  0  0  0
  9 10  1  0  0  0  0
 10 11  1  0  0  0  0
 11 12  1  0  0  0  0
 12 13  2  0  0  0  0
 12 14  2  0  0  0  0
 14 15  1  0  0  0  0
 15 16  1  0  0  0  0
 12 17  2  0  0  0  0
 17 18  1  0  0  0  0
 18 19  1  0  0  0  0
  1 20  1  0  0  0  0
  1 21  1  0  0  0  0
  1 22  1  0  0  0  0
  2 23  1  0  0  0  0
  2 24  1  0  0  0  0
  7 25  1  0  0  0  0
  7 26  1  0  0  0  0
  8 27  1  0  0  0  0
  8 28  1  0  0  0  0
  8 29  1  0  0  0  0
 10 30  1  0  0  0  0
 10 31  1  0  0  0  0
 15 32  1  0  0  0  0
 15 33  1  0  0  0  0
 16 34  1  0  0  0  0
 16 35  1  0  0  0  0
 16 36  1  0  0  0  0
 18 37  1  0  0  0  0
 18 38  1  0  0  0  0
 19 39  1  0  0  0  0
 19 40  1  0  0  0  0
 19 41  1  0  0  0  0
M  END
