 xtb: 6.7.1 (edcfbbe)
          04092507313D

 38 37  0     0  0            999 V2000
    2.7091   -4.0340    0.0837 C   0  0  0  0  0  0  0  0  0  0  0  0
    2.7524   -2.5612    0.4375 C   0  0  0  0  0  0  0  0  0  0  0  0
    2.3930   -1.8121   -0.7401 O   0  0  0  0  0  0  0  0  0  0  0  0
    2.1624   -0.5275   -0.6189 C   0  0  0  0  0  0  0  0  0  0  0  0
    2.2297    0.0958    0.4230 O   0  0  0  0  0  0  0  0  0  0  0  0
    1.8010    0.1260   -1.9389 C   0  0  0  0  0  0  0  0  0  0  0  0
    0.5099    0.9342   -1.7812 C   0  0  0  0  0  0  0  0  0  0  0  0
    0.3954    1.6215   -2.6222 H   0  0  0  0  0  0  0  0  0  0  0  0
    0.5135    1.7235   -0.4878 C   0  0  0  0  0  0  0  0  0  0  0  0
   -0.3122    1.5229    0.3907 O   0  0  0  0  0  0  0  0  0  0  0  0
    1.4276    2.6410   -0.4623 O   0  0  0  0  0  0  0  0  0  0  0  0
    1.5816    3.4344    0.7366 C   0  0  0  0  0  0  0  0  0  0  0  0
    0.5972    4.5914    0.7573 C   0  0  0  0  0  0  0  0  0  0  0  0
   -0.9784   -0.1270   -1.8066 S   0  0  0  0  0  0  0  0  0  0  0  0
   -1.5441   -0.4621    0.2059 P   0  0  0  0  0  0  0  0  0  0  0  0
   -0.4600   -1.1246    1.7131 S   0  0  0  0  0  0  0  0  0  0  0  0
   -2.7539    0.5032    0.6277 O   0  0  0  0  0  0  0  0  0  0  0  0
   -2.7289    1.4646    1.6796 C   0  0  0  0  0  0  0  0  0  0  0  0
   -2.4387   -1.6766   -0.3794 O   0  0  0  0  0  0  0  0  0  0  0  0
   -3.2405   -2.5014    0.4643 C   0  0  0  0  0  0  0  0  0  0  0  0
    1.7029   -4.3127   -0.2156 H   0  0  0  0  0  0  0  0  0  0  0  0
    3.3921   -4.2400   -0.7348 H   0  0  0  0  0  0  0  0  0  0  0  0
    2.9965   -4.6176    0.9517 H   0  0  0  0  0  0  0  0  0  0  0  0
    3.7529   -2.2449    0.7475 H   0  0  0  0  0  0  0  0  0  0  0  0
    2.0464   -2.3104    1.2366 H   0  0  0  0  0  0  0  0  0  0  0  0
    1.6802   -0.6327   -2.7097 H   0  0  0  0  0  0  0  0  0  0  0  0
    2.6129    0.8062   -2.2043 H   0  0  0  0  0  0  0  0  0  0  0  0
    1.4486    2.7773    1.6001 H   0  0  0  0  0  0  0  0  0  0  0  0
    2.6117    3.7859    0.6863 H   0  0  0  0  0  0  0  0  0  0  0  0
    0.7175    5.2015   -0.1334 H   0  0  0  0  0  0  0  0  0  0  0  0
   -0.4238    4.2194    0.7996 H   0  0  0  0  0  0  0  0  0  0  0  0
    0.7836    5.1995    1.6360 H   0  0  0  0  0  0  0  0  0  0  0  0
   -1.9525    1.2124    2.4038 H   0  0  0  0  0  0  0  0  0  0  0  0
   -3.7111    1.4277    2.1465 H   0  0  0  0  0  0  0  0  0  0  0  0
   -2.5381    2.4517    1.2629 H   0  0  0  0  0  0  0  0  0  0  0  0
   -4.1528   -1.9746    0.7430 H   0  0  0  0  0  0  0  0  0  0  0  0
   -2.6811   -2.7741    1.3626 H   0  0  0  0  0  0  0  0  0  0  0  0
   -3.4731   -3.3872   -0.1216 H   0  0  0  0  0  0  0  0  0  0  0  0
  1  2  1  0  0  0  0
  2  3  1  0  0  0  0
  3  4  4  0  0  0  0
  4  5  2  0  0  0  0
  4  6  1  0  0  0  0
  6  7  1  0  0  0  0
  7  8  1  0  0  0  0
  7  9  1  0  0  0  0
  9 10  2  0  0  0  0
  9 11  4  0  0  0  0
 11 12  1  0  0  0  0
 12 13  1  0  0  0  0
  7 14  1  0  0  0  0
 14 15  1  0  0  0  0
 15 16  2  0  0  0  0
 15 17  1  0  0  0  0
 17 18  1  0  0  0  0
 15 19  1  0  0  0  0
 19 20  1  0  0  0  0
  1 21  1  0  0  0  0
  1 22  1  0  0  0  0
  1 23  1  0  0  0  0
  2 24  1  0  0  0  0
  2 25  1  0  0  0  0
  6 26  1  0  0  0  0
  6 27  1  0  0  0  0
 12 28  1  0  0  0  0
 12 29  1  0  0  0  0
 13 30  1  0  0  0  0
 13 31  1  0  0  0  0
 13 32  1  0  0  0  0
 18 33  1  0  0  0  0
 18 34  1  0  0  0  0
 18 35  1  0  0  0  0
 20 36  1  0  0  0  0
 20 37  1  0  0  0  0
 20 38  1  0  0  0  0
M  END
