 xtb: 6.7.1 (edcfbbe)
          04092513593D

 41 40  0     0  0            999 V2000
    3.0000   -2.3455    1.9269 C   0  0  0  0  0  0  0  0  0  0  0  0
    1.7144   -2.0406    1.1844 C   0  0  0  0  0  0  0  0  0  0  0  0
    1.6021   -0.6348    0.9086 O   0  0  0  0  0  0  0  0  0  0  0  0
    2.2908    0.0741   -0.3473 P   0  0  0  0  0  0  0  0  0  0  0  0
    2.9521   -1.1056   -1.7550 S   0  0  0  0  0  0  0  0  0  0  0  0
    3.4521    0.9681    0.2524 O   0  0  0  0  0  0  0  0  0  0  0  0
    3.3311    1.7670    1.4566 C   0  0  0  0  0  0  0  0  0  0  0  0
    3.0727    3.2223    1.1227 C   0  0  0  0  0  0  0  0  0  0  0  0
    0.7724    1.4502   -0.8933 S   0  0  0  0  0  0  0  0  0  0  0  0
   -0.1184    0.3653   -2.0366 C   0  0  0  0  0  0  0  0  0  0  0  0
   -0.8190   -1.1187   -1.2604 S   0  0  0  0  0  0  0  0  0  0  0  0
   -2.2272   -0.1394   -0.0359 P   0  0  0  0  0  0  0  0  0  0  0  0
   -3.1116    1.4617   -0.7505 S   0  0  0  0  0  0  0  0  0  0  0  0
   -1.3489    0.0647    1.2642 O   0  0  0  0  0  0  0  0  0  0  0  0
   -1.7429    0.9455    2.3419 C   0  0  0  0  0  0  0  0  0  0  0  0
   -0.4949    1.5917    2.9077 C   0  0  0  0  0  0  0  0  0  0  0  0
   -3.2240   -1.2858    0.4407 O   0  0  0  0  0  0  0  0  0  0  0  0
   -4.4628   -1.5821   -0.2278 C   0  0  0  0  0  0  0  0  0  0  0  0
   -4.2453   -2.2657   -1.5623 C   0  0  0  0  0  0  0  0  0  0  0  0
    3.0595   -1.7604    2.8410 H   0  0  0  0  0  0  0  0  0  0  0  0
    3.0291   -3.4019    2.1745 H   0  0  0  0  0  0  0  0  0  0  0  0
    3.8549   -2.1054    1.2959 H   0  0  0  0  0  0  0  0  0  0  0  0
    0.8305   -2.2699    1.7823 H   0  0  0  0  0  0  0  0  0  0  0  0
    1.6711   -2.5920    0.2396 H   0  0  0  0  0  0  0  0  0  0  0  0
    2.5333    1.3538    2.0770 H   0  0  0  0  0  0  0  0  0  0  0  0
    4.2928    1.6441    1.9578 H   0  0  0  0  0  0  0  0  0  0  0  0
    3.0568    3.7973    2.0435 H   0  0  0  0  0  0  0  0  0  0  0  0
    3.8585    3.6029    0.4763 H   0  0  0  0  0  0  0  0  0  0  0  0
    2.1180    3.3366    0.6126 H   0  0  0  0  0  0  0  0  0  0  0  0
    0.5656    0.0075   -2.8058 H   0  0  0  0  0  0  0  0  0  0  0  0
   -0.9194    0.9678   -2.4645 H   0  0  0  0  0  0  0  0  0  0  0  0
   -2.4360    1.6971    1.9487 H   0  0  0  0  0  0  0  0  0  0  0  0
   -2.2561    0.3364    3.0895 H   0  0  0  0  0  0  0  0  0  0  0  0
   -0.0153    2.2014    2.1458 H   0  0  0  0  0  0  0  0  0  0  0  0
   -0.7668    2.2187    3.7505 H   0  0  0  0  0  0  0  0  0  0  0  0
    0.1995    0.8238    3.2373 H   0  0  0  0  0  0  0  0  0  0  0  0
   -4.9897   -2.2304    0.4739 H   0  0  0  0  0  0  0  0  0  0  0  0
   -5.0166   -0.6470   -0.3596 H   0  0  0  0  0  0  0  0  0  0  0  0
   -3.6125   -3.1412   -1.4417 H   0  0  0  0  0  0  0  0  0  0  0  0
   -5.2054   -2.5686   -1.9685 H   0  0  0  0  0  0  0  0  0  0  0  0
   -3.7666   -1.5808   -2.2608 H   0  0  0  0  0  0  0  0  0  0  0  0
  1  2  1  0  0  0  0
  2  3  1  0  0  0  0
  3  4  1  0  0  0  0
  4  5  2  0  0  0  0
  4  6  2  0  0  0  0
  6  7  1  0  0  0  0
  7  8  1  0  0  0  0
  4  9  1  0  0  0  0
  9 10  1  0  0  0  0
 10 11  1  0  0  0  0
 11 12  1  0  0  0  0
 12 13  2  0  0  0  0
 12 14  2  0  0  0  0
 14 15  1  0  0  0  0
 15 16  1  0  0  0  0
 12 17  2  0  0  0  0
 17 18  1  0  0  0  0
 18 19  1  0  0  0  0
  1 20  1  0  0  0  0
  1 21  1  0  0  0  0
  1 22  1  0  0  0  0
  2 23  1  0  0  0  0
  2 24  1  0  0  0  0
  7 25  1  0  0  0  0
  7 26  1  0  0  0  0
  8 27  1  0  0  0  0
  8 28  1  0  0  0  0
  8 29  1  0  0  0  0
 10 30  1  0  0  0  0
 10 31  1  0  0  0  0
 15 32  1  0  0  0  0
 15 33  1  0  0  0  0
 16 34  1  0  0  0  0
 16 35  1  0  0  0  0
 16 36  1  0  0  0  0
 18 37  1  0  0  0  0
 18 38  1  0  0  0  0
 19 39  1  0  0  0  0
 19 40  1  0  0  0  0
 19 41  1  0  0  0  0
M  END
