 xtb: 6.7.1 (edcfbbe)
          04092505213D

 41 40  0     0  0            999 V2000
    5.3905    0.5917   -1.9495 C   0  0  0  0  0  0  0  0  0  0  0  0
    4.1231   -0.2380   -1.8936 C   0  0  0  0  0  0  0  0  0  0  0  0
    3.6169   -0.2007   -0.5452 O   0  0  0  0  0  0  0  0  0  0  0  0
    2.0702   -0.2160   -0.1947 P   0  0  0  0  0  0  0  0  0  0  0  0
    0.9776    0.8320   -1.4541 S   0  0  0  0  0  0  0  0  0  0  0  0
    2.0644    0.1545    1.3394 O   0  0  0  0  0  0  0  0  0  0  0  0
    2.7712    1.2707    1.9249 C   0  0  0  0  0  0  0  0  0  0  0  0
    2.2600    2.6022    1.4185 C   0  0  0  0  0  0  0  0  0  0  0  0
    1.6139   -2.2738   -0.0585 S   0  0  0  0  0  0  0  0  0  0  0  0
   -0.0547   -2.1833    0.6482 C   0  0  0  0  0  0  0  0  0  0  0  0
   -1.3811   -1.9157   -0.5790 S   0  0  0  0  0  0  0  0  0  0  0  0
   -2.1188   -0.0271    0.0287 P   0  0  0  0  0  0  0  0  0  0  0  0
   -1.1894    0.8397    1.5259 S   0  0  0  0  0  0  0  0  0  0  0  0
   -3.6701   -0.3177    0.2616 O   0  0  0  0  0  0  0  0  0  0  0  0
   -4.1735   -1.1969    1.2824 C   0  0  0  0  0  0  0  0  0  0  0  0
   -4.4043   -0.4635    2.5903 C   0  0  0  0  0  0  0  0  0  0  0  0
   -2.2111    0.7590   -1.3341 O   0  0  0  0  0  0  0  0  0  0  0  0
   -2.1882    2.1977   -1.4064 C   0  0  0  0  0  0  0  0  0  0  0  0
   -3.4449    2.8024   -0.8185 C   0  0  0  0  0  0  0  0  0  0  0  0
    6.1149    0.2112   -1.2352 H   0  0  0  0  0  0  0  0  0  0  0  0
    5.8075    0.5339   -2.9496 H   0  0  0  0  0  0  0  0  0  0  0  0
    5.1718    1.6298   -1.7139 H   0  0  0  0  0  0  0  0  0  0  0  0
    4.3179   -1.2835   -2.1425 H   0  0  0  0  0  0  0  0  0  0  0  0
    3.3563    0.1586   -2.5681 H   0  0  0  0  0  0  0  0  0  0  0  0
    2.5822    1.1526    2.9930 H   0  0  0  0  0  0  0  0  0  0  0  0
    3.8354    1.1478    1.7133 H   0  0  0  0  0  0  0  0  0  0  0  0
    2.4454    2.6956    0.3492 H   0  0  0  0  0  0  0  0  0  0  0  0
    1.1881    2.6777    1.5916 H   0  0  0  0  0  0  0  0  0  0  0  0
    2.7658    3.4075    1.9413 H   0  0  0  0  0  0  0  0  0  0  0  0
   -0.0891   -1.3804    1.3894 H   0  0  0  0  0  0  0  0  0  0  0  0
   -0.2271   -3.1552    1.1020 H   0  0  0  0  0  0  0  0  0  0  0  0
   -5.1116   -1.5745    0.8708 H   0  0  0  0  0  0  0  0  0  0  0  0
   -3.4753   -2.0298    1.4138 H   0  0  0  0  0  0  0  0  0  0  0  0
   -5.0885    0.3664    2.4370 H   0  0  0  0  0  0  0  0  0  0  0  0
   -4.8307   -1.1508    3.3137 H   0  0  0  0  0  0  0  0  0  0  0  0
   -3.4663   -0.0744    2.9797 H   0  0  0  0  0  0  0  0  0  0  0  0
   -1.2941    2.5587   -0.8877 H   0  0  0  0  0  0  0  0  0  0  0  0
   -2.0895    2.4016   -2.4733 H   0  0  0  0  0  0  0  0  0  0  0  0
   -3.4948    2.5801    0.2472 H   0  0  0  0  0  0  0  0  0  0  0  0
   -3.4259    3.8787   -0.9569 H   0  0  0  0  0  0  0  0  0  0  0  0
   -4.3226    2.3857   -1.3053 H   0  0  0  0  0  0  0  0  0  0  0  0
  1  2  1  0  0  0  0
  2  3  1  0  0  0  0
  3  4  2  0  0  0  0
  4  5  2  0  0  0  0
  4  6  2  0  0  0  0
  6  7  1  0  0  0  0
  7  8  1  0  0  0  0
  4  9  1  0  0  0  0
  9 10  1  0  0  0  0
 10 11  1  0  0  0  0
 11 12  1  0  0  0  0
 12 13  2  0  0  0  0
 12 14  2  0  0  0  0
 14 15  1  0  0  0  0
 15 16  1  0  0  0  0
 12 17  2  0  0  0  0
 17 18  1  0  0  0  0
 18 19  1  0  0  0  0
  1 20  1  0  0  0  0
  1 21  1  0  0  0  0
  1 22  1  0  0  0  0
  2 23  1  0  0  0  0
  2 24  1  0  0  0  0
  7 25  1  0  0  0  0
  7 26  1  0  0  0  0
  8 27  1  0  0  0  0
  8 28  1  0  0  0  0
  8 29  1  0  0  0  0
 10 30  1  0  0  0  0
 10 31  1  0  0  0  0
 15 32  1  0  0  0  0
 15 33  1  0  0  0  0
 16 34  1  0  0  0  0
 16 35  1  0  0  0  0
 16 36  1  0  0  0  0
 18 37  1  0  0  0  0
 18 38  1  0  0  0  0
 19 39  1  0  0  0  0
 19 40  1  0  0  0  0
 19 41  1  0  0  0  0
M  END
