 xtb: 6.7.1 (edcfbbe)
          04092505213D

 41 40  0     0  0            999 V2000
    5.7339   -1.4708   -0.2477 C   0  0  0  0  0  0  0  0  0  0  0  0
    4.7872   -0.2887   -0.2251 C   0  0  0  0  0  0  0  0  0  0  0  0
    3.4537   -0.7965   -0.0066 O   0  0  0  0  0  0  0  0  0  0  0  0
    2.1824    0.1354   -0.2065 P   0  0  0  0  0  0  0  0  0  0  0  0
    2.1001    1.0515   -1.9415 S   0  0  0  0  0  0  0  0  0  0  0  0
    2.2472    1.0809    1.0742 O   0  0  0  0  0  0  0  0  0  0  0  0
    2.0341    2.5020    1.0686 C   0  0  0  0  0  0  0  0  0  0  0  0
    3.3578    3.2316    0.9562 C   0  0  0  0  0  0  0  0  0  0  0  0
    0.7726   -1.3504    0.2473 S   0  0  0  0  0  0  0  0  0  0  0  0
   -0.1953   -1.3382   -1.3110 C   0  0  0  0  0  0  0  0  0  0  0  0
   -1.9558   -1.5746   -1.0286 S   0  0  0  0  0  0  0  0  0  0  0  0
   -2.4191    0.2258    0.0247 P   0  0  0  0  0  0  0  0  0  0  0  0
   -1.0316    1.6098   -0.0633 S   0  0  0  0  0  0  0  0  0  0  0  0
   -2.8643   -0.1896    1.4943 O   0  0  0  0  0  0  0  0  0  0  0  0
   -1.9555   -0.5796    2.5390 C   0  0  0  0  0  0  0  0  0  0  0  0
   -1.8397   -2.0889    2.6248 C   0  0  0  0  0  0  0  0  0  0  0  0
   -3.7732    0.7451   -0.5795 O   0  0  0  0  0  0  0  0  0  0  0  0
   -5.0835    0.1824   -0.3096 C   0  0  0  0  0  0  0  0  0  0  0  0
   -5.1977   -1.2594   -0.7537 C   0  0  0  0  0  0  0  0  0  0  0  0
    5.6721   -2.0111    0.6924 H   0  0  0  0  0  0  0  0  0  0  0  0
    5.4687   -2.1442   -1.0576 H   0  0  0  0  0  0  0  0  0  0  0  0
    6.7479   -1.1132   -0.3942 H   0  0  0  0  0  0  0  0  0  0  0  0
    4.7982    0.2554   -1.1761 H   0  0  0  0  0  0  0  0  0  0  0  0
    5.0290    0.4033    0.5862 H   0  0  0  0  0  0  0  0  0  0  0  0
    1.3702    2.7665    0.2403 H   0  0  0  0  0  0  0  0  0  0  0  0
    1.5297    2.7156    2.0120 H   0  0  0  0  0  0  0  0  0  0  0  0
    3.8237    3.0084   -0.0022 H   0  0  0  0  0  0  0  0  0  0  0  0
    3.1808    4.3002    1.0216 H   0  0  0  0  0  0  0  0  0  0  0  0
    4.0240    2.9264    1.7586 H   0  0  0  0  0  0  0  0  0  0  0  0
    0.1215   -2.1754   -1.9279 H   0  0  0  0  0  0  0  0  0  0  0  0
   -0.0178   -0.3855   -1.8162 H   0  0  0  0  0  0  0  0  0  0  0  0
   -0.9804   -0.1145    2.3614 H   0  0  0  0  0  0  0  0  0  0  0  0
   -2.3929   -0.1639    3.4489 H   0  0  0  0  0  0  0  0  0  0  0  0
   -1.2378   -2.3469    3.4898 H   0  0  0  0  0  0  0  0  0  0  0  0
   -2.8261   -2.5318    2.7278 H   0  0  0  0  0  0  0  0  0  0  0  0
   -1.3582   -2.4886    1.7351 H   0  0  0  0  0  0  0  0  0  0  0  0
   -5.2810    0.2822    0.7589 H   0  0  0  0  0  0  0  0  0  0  0  0
   -5.7512    0.8339   -0.8752 H   0  0  0  0  0  0  0  0  0  0  0  0
   -4.5246   -1.8887   -0.1742 H   0  0  0  0  0  0  0  0  0  0  0  0
   -6.2181   -1.5969   -0.6002 H   0  0  0  0  0  0  0  0  0  0  0  0
   -4.9425   -1.3557   -1.8056 H   0  0  0  0  0  0  0  0  0  0  0  0
  1  2  1  0  0  0  0
  2  3  1  0  0  0  0
  3  4  2  0  0  0  0
  4  5  2  0  0  0  0
  4  6  2  0  0  0  0
  6  7  1  0  0  0  0
  7  8  1  0  0  0  0
  4  9  1  0  0  0  0
  9 10  1  0  0  0  0
 10 11  1  0  0  0  0
 11 12  1  0  0  0  0
 12 13  2  0  0  0  0
 12 14  2  0  0  0  0
 14 15  1  0  0  0  0
 15 16  1  0  0  0  0
 12 17  2  0  0  0  0
 17 18  1  0  0  0  0
 18 19  1  0  0  0  0
  1 20  1  0  0  0  0
  1 21  1  0  0  0  0
  1 22  1  0  0  0  0
  2 23  1  0  0  0  0
  2 24  1  0  0  0  0
  7 25  1  0  0  0  0
  7 26  1  0  0  0  0
  8 27  1  0  0  0  0
  8 28  1  0  0  0  0
  8 29  1  0  0  0  0
 10 30  1  0  0  0  0
 10 31  1  0  0  0  0
 15 32  1  0  0  0  0
 15 33  1  0  0  0  0
 16 34  1  0  0  0  0
 16 35  1  0  0  0  0
 16 36  1  0  0  0  0
 18 37  1  0  0  0  0
 18 38  1  0  0  0  0
 19 39  1  0  0  0  0
 19 40  1  0  0  0  0
 19 41  1  0  0  0  0
M  END
