 xtb: 6.7.1 (edcfbbe)
          04092505213D

 41 40  0     0  0            999 V2000
    3.2933    1.3143   -2.0983 C   0  0  0  0  0  0  0  0  0  0  0  0
    2.1720    0.3495   -1.7781 C   0  0  0  0  0  0  0  0  0  0  0  0
    1.5879    0.6621   -0.4843 O   0  0  0  0  0  0  0  0  0  0  0  0
    2.0079   -0.0677    0.8452 P   0  0  0  0  0  0  0  0  0  0  0  0
    1.3933    0.8485    2.4593 S   0  0  0  0  0  0  0  0  0  0  0  0
    3.5873   -0.1752    0.7277 O   0  0  0  0  0  0  0  0  0  0  0  0
    4.3678   -0.7561    1.7923 C   0  0  0  0  0  0  0  0  0  0  0  0
    5.8213   -0.4075    1.5447 C   0  0  0  0  0  0  0  0  0  0  0  0
    1.4484   -2.1260    0.5802 S   0  0  0  0  0  0  0  0  0  0  0  0
   -0.2227   -1.9286   -0.0818 C   0  0  0  0  0  0  0  0  0  0  0  0
   -1.2720   -0.8511    0.9579 S   0  0  0  0  0  0  0  0  0  0  0  0
   -2.3629    0.0405   -0.6096 P   0  0  0  0  0  0  0  0  0  0  0  0
   -1.4352    0.4008   -2.3015 S   0  0  0  0  0  0  0  0  0  0  0  0
   -3.0830    1.2895    0.0553 O   0  0  0  0  0  0  0  0  0  0  0  0
   -2.5407    2.6201    0.0045 C   0  0  0  0  0  0  0  0  0  0  0  0
   -1.2602    2.7492    0.8014 C   0  0  0  0  0  0  0  0  0  0  0  0
   -3.5325   -1.0228   -0.7083 O   0  0  0  0  0  0  0  0  0  0  0  0
   -4.4018   -1.1184   -1.8574 C   0  0  0  0  0  0  0  0  0  0  0  0
   -5.3105    0.0861   -1.9837 C   0  0  0  0  0  0  0  0  0  0  0  0
    3.6670    1.1012   -3.0949 H   0  0  0  0  0  0  0  0  0  0  0  0
    2.9257    2.3361   -2.0643 H   0  0  0  0  0  0  0  0  0  0  0  0
    4.0999    1.2055   -1.3783 H   0  0  0  0  0  0  0  0  0  0  0  0
    2.5294   -0.6832   -1.7667 H   0  0  0  0  0  0  0  0  0  0  0  0
    1.3438    0.4517   -2.4838 H   0  0  0  0  0  0  0  0  0  0  0  0
    4.0117   -0.3507    2.7450 H   0  0  0  0  0  0  0  0  0  0  0  0
    4.2061   -1.8377    1.7811 H   0  0  0  0  0  0  0  0  0  0  0  0
    5.9526    0.6709    1.5510 H   0  0  0  0  0  0  0  0  0  0  0  0
    6.4298   -0.8460    2.3286 H   0  0  0  0  0  0  0  0  0  0  0  0
    6.1389   -0.7979    0.5823 H   0  0  0  0  0  0  0  0  0  0  0  0
   -0.6472   -2.9297   -0.1050 H   0  0  0  0  0  0  0  0  0  0  0  0
   -0.1740   -1.4962   -1.0841 H   0  0  0  0  0  0  0  0  0  0  0  0
   -2.3654    2.8830   -1.0439 H   0  0  0  0  0  0  0  0  0  0  0  0
   -3.3352    3.2424    0.4182 H   0  0  0  0  0  0  0  0  0  0  0  0
   -0.9491    3.7885    0.8275 H   0  0  0  0  0  0  0  0  0  0  0  0
   -1.3996    2.3936    1.8200 H   0  0  0  0  0  0  0  0  0  0  0  0
   -0.4651    2.1612    0.3413 H   0  0  0  0  0  0  0  0  0  0  0  0
   -3.7800   -1.2294   -2.7515 H   0  0  0  0  0  0  0  0  0  0  0  0
   -4.9657   -2.0346   -1.6790 H   0  0  0  0  0  0  0  0  0  0  0  0
   -5.8482    0.2500   -1.0534 H   0  0  0  0  0  0  0  0  0  0  0  0
   -4.7227    0.9745   -2.2109 H   0  0  0  0  0  0  0  0  0  0  0  0
   -6.0202   -0.0815   -2.7879 H   0  0  0  0  0  0  0  0  0  0  0  0
  1  2  1  0  0  0  0
  2  3  1  0  0  0  0
  3  4  2  0  0  0  0
  4  5  2  0  0  0  0
  4  6  2  0  0  0  0
  6  7  1  0  0  0  0
  7  8  1  0  0  0  0
  4  9  1  0  0  0  0
  9 10  1  0  0  0  0
 10 11  1  0  0  0  0
 11 12  1  0  0  0  0
 12 13  2  0  0  0  0
 12 14  2  0  0  0  0
 14 15  1  0  0  0  0
 15 16  1  0  0  0  0
 12 17  2  0  0  0  0
 17 18  1  0  0  0  0
 18 19  1  0  0  0  0
  1 20  1  0  0  0  0
  1 21  1  0  0  0  0
  1 22  1  0  0  0  0
  2 23  1  0  0  0  0
  2 24  1  0  0  0  0
  7 25  1  0  0  0  0
  7 26  1  0  0  0  0
  8 27  1  0  0  0  0
  8 28  1  0  0  0  0
  8 29  1  0  0  0  0
 10 30  1  0  0  0  0
 10 31  1  0  0  0  0
 15 32  1  0  0  0  0
 15 33  1  0  0  0  0
 16 34  1  0  0  0  0
 16 35  1  0  0  0  0
 16 36  1  0  0  0  0
 18 37  1  0  0  0  0
 18 38  1  0  0  0  0
 19 39  1  0  0  0  0
 19 40  1  0  0  0  0
 19 41  1  0  0  0  0
M  END
