 xtb: 6.7.1 (edcfbbe)
          04092505213D

 41 40  0     0  0            999 V2000
    5.3587    1.3888   -1.8575 C   0  0  0  0  0  0  0  0  0  0  0  0
    4.0111    0.6952   -1.8713 C   0  0  0  0  0  0  0  0  0  0  0  0
    3.7887    0.1264   -0.5661 O   0  0  0  0  0  0  0  0  0  0  0  0
    2.3332   -0.1011    0.0028 P   0  0  0  0  0  0  0  0  0  0  0  0
    1.1095    1.4140   -0.2801 S   0  0  0  0  0  0  0  0  0  0  0  0
    2.8058   -0.4339    1.4727 O   0  0  0  0  0  0  0  0  0  0  0  0
    1.9975   -1.0558    2.4878 C   0  0  0  0  0  0  0  0  0  0  0  0
    1.1088   -0.0492    3.1919 C   0  0  0  0  0  0  0  0  0  0  0  0
    1.7209   -1.9514   -0.8547 S   0  0  0  0  0  0  0  0  0  0  0  0
   -0.0409   -1.6454   -1.1211 C   0  0  0  0  0  0  0  0  0  0  0  0
   -0.9844   -1.5537    0.4427 S   0  0  0  0  0  0  0  0  0  0  0  0
   -2.1720    0.1482    0.0664 P   0  0  0  0  0  0  0  0  0  0  0  0
   -2.1621    0.8470   -1.7720 S   0  0  0  0  0  0  0  0  0  0  0  0
   -1.6908    1.0410    1.2819 O   0  0  0  0  0  0  0  0  0  0  0  0
   -2.3655    2.2323    1.7378 C   0  0  0  0  0  0  0  0  0  0  0  0
   -2.1249    3.4072    0.8112 C   0  0  0  0  0  0  0  0  0  0  0  0
   -3.6359   -0.2362    0.5704 O   0  0  0  0  0  0  0  0  0  0  0  0
   -4.6258   -0.8067   -0.2998 C   0  0  0  0  0  0  0  0  0  0  0  0
   -4.2557   -2.2088   -0.7388 C   0  0  0  0  0  0  0  0  0  0  0  0
    5.5601    1.7969   -2.8425 H   0  0  0  0  0  0  0  0  0  0  0  0
    5.3562    2.1939   -1.1281 H   0  0  0  0  0  0  0  0  0  0  0  0
    6.1360    0.6779   -1.5936 H   0  0  0  0  0  0  0  0  0  0  0  0
    3.9904   -0.1188   -2.6007 H   0  0  0  0  0  0  0  0  0  0  0  0
    3.2025    1.4009   -2.0953 H   0  0  0  0  0  0  0  0  0  0  0  0
    1.4010   -1.8577    2.0397 H   0  0  0  0  0  0  0  0  0  0  0  0
    2.7288   -1.4857    3.1749 H   0  0  0  0  0  0  0  0  0  0  0  0
    0.3829    0.3696    2.4972 H   0  0  0  0  0  0  0  0  0  0  0  0
    0.5763   -0.5444    3.9976 H   0  0  0  0  0  0  0  0  0  0  0  0
    1.7088    0.7615    3.5967 H   0  0  0  0  0  0  0  0  0  0  0  0
   -0.3959   -2.4963   -1.6968 H   0  0  0  0  0  0  0  0  0  0  0  0
   -0.1874   -0.7084   -1.6654 H   0  0  0  0  0  0  0  0  0  0  0  0
   -3.4318    2.0157    1.8384 H   0  0  0  0  0  0  0  0  0  0  0  0
   -1.9284    2.4104    2.7221 H   0  0  0  0  0  0  0  0  0  0  0  0
   -2.6099    3.2438   -0.1493 H   0  0  0  0  0  0  0  0  0  0  0  0
   -2.5218    4.3114    1.2612 H   0  0  0  0  0  0  0  0  0  0  0  0
   -1.0575    3.5273    0.6362 H   0  0  0  0  0  0  0  0  0  0  0  0
   -5.5379   -0.7978    0.2984 H   0  0  0  0  0  0  0  0  0  0  0  0
   -4.7409   -0.1511   -1.1690 H   0  0  0  0  0  0  0  0  0  0  0  0
   -4.0258   -2.8278    0.1247 H   0  0  0  0  0  0  0  0  0  0  0  0
   -5.0848   -2.6445   -1.2868 H   0  0  0  0  0  0  0  0  0  0  0  0
   -3.3836   -2.1716   -1.3906 H   0  0  0  0  0  0  0  0  0  0  0  0
  1  2  1  0  0  0  0
  2  3  1  0  0  0  0
  3  4  2  0  0  0  0
  4  5  2  0  0  0  0
  4  6  2  0  0  0  0
  6  7  1  0  0  0  0
  7  8  1  0  0  0  0
  4  9  1  0  0  0  0
  9 10  1  0  0  0  0
 10 11  1  0  0  0  0
 11 12  1  0  0  0  0
 12 13  2  0  0  0  0
 12 14  2  0  0  0  0
 14 15  1  0  0  0  0
 15 16  1  0  0  0  0
 12 17  2  0  0  0  0
 17 18  1  0  0  0  0
 18 19  1  0  0  0  0
  1 20  1  0  0  0  0
  1 21  1  0  0  0  0
  1 22  1  0  0  0  0
  2 23  1  0  0  0  0
  2 24  1  0  0  0  0
  7 25  1  0  0  0  0
  7 26  1  0  0  0  0
  8 27  1  0  0  0  0
  8 28  1  0  0  0  0
  8 29  1  0  0  0  0
 10 30  1  0  0  0  0
 10 31  1  0  0  0  0
 15 32  1  0  0  0  0
 15 33  1  0  0  0  0
 16 34  1  0  0  0  0
 16 35  1  0  0  0  0
 16 36  1  0  0  0  0
 18 37  1  0  0  0  0
 18 38  1  0  0  0  0
 19 39  1  0  0  0  0
 19 40  1  0  0  0  0
 19 41  1  0  0  0  0
M  END
