 xtb: 6.7.1 (edcfbbe)
          04032519423D

 20 20  0     0  0            999 V2000
    0.6248    1.6897   -0.0697 C   0  0  0  0  0  0  0  0  0  0  0  0
    1.4193    0.3881   -0.2650 C   0  0  0  0  0  0  0  0  0  0  0  0
    1.6509    0.2371   -1.3280 H   0  0  0  0  0  0  0  0  0  0  0  0
    0.5633   -0.7984    0.1937 C   0  0  0  0  0  0  0  0  0  0  0  0
    0.4330   -0.7277    1.2850 H   0  0  0  0  0  0  0  0  0  0  0  0
   -0.8131   -0.7518   -0.4927 C   0  0  0  0  0  0  0  0  0  0  0  0
   -0.6715   -0.9199   -1.5656 H   0  0  0  0  0  0  0  0  0  0  0  0
   -1.4721    0.6227   -0.2864 C   0  0  0  0  0  0  0  0  0  0  0  0
   -2.3636    0.7001   -0.9255 H   0  0  0  0  0  0  0  0  0  0  0  0
   -0.6358    1.6622   -0.7214 O   0  0  0  0  0  0  0  0  0  0  0  0
   -1.8052    0.7260    1.0633 O   0  0  0  0  0  0  0  0  0  0  0  0
   -1.6413   -1.7873   -0.0338 O   0  0  0  0  0  0  0  0  0  0  0  0
    1.2326   -1.9909   -0.1382 O   0  0  0  0  0  0  0  0  0  0  0  0
    2.5913    0.4078    0.5130 O   0  0  0  0  0  0  0  0  0  0  0  0
    1.1495    2.5391   -0.5064 H   0  0  0  0  0  0  0  0  0  0  0  0
    0.4942    1.8502    1.0076 H   0  0  0  0  0  0  0  0  0  0  0  0
   -2.3423    1.5172    1.2198 H   0  0  0  0  0  0  0  0  0  0  0  0
   -1.9652   -1.5508    0.8505 H   0  0  0  0  0  0  0  0  0  0  0  0
    0.6195   -2.7301   -0.0029 H   0  0  0  0  0  0  0  0  0  0  0  0
    3.2575    0.9684    0.0917 H   0  0  0  0  0  0  0  0  0  0  0  0
  1  2  1  0  0  0  0
  2  3  1  0  0  0  0
  2  4  1  0  0  0  0
  4  5  1  0  0  0  0
  4  6  1  0  0  0  0
  6  7  1  0  0  0  0
  6  8  1  0  0  0  0
  8  9  1  0  0  0  0
  1 10  1  0  0  0  0
  8 10  1  0  0  0  0
  8 11  1  0  0  0  0
  6 12  1  0  0  0  0
  4 13  1  0  0  0  0
  2 14  1  0  0  0  0
  1 15  1  0  0  0  0
  1 16  1  0  0  0  0
 11 17  1  0  0  0  0
 12 18  1  0  0  0  0
 13 19  1  0  0  0  0
 14 20  1  0  0  0  0
M  END
