 xtb: 6.7.1 (edcfbbe)
          04092505213D

 41 40  0     0  0            999 V2000
    4.0626   -1.4879   -2.4850 C   0  0  0  0  0  0  0  0  0  0  0  0
    4.0781   -0.0483   -2.0145 C   0  0  0  0  0  0  0  0  0  0  0  0
    3.4321    0.1199   -0.7382 O   0  0  0  0  0  0  0  0  0  0  0  0
    1.8747   -0.1026   -0.5269 P   0  0  0  0  0  0  0  0  0  0  0  0
    0.7295    0.5672   -1.9603 S   0  0  0  0  0  0  0  0  0  0  0  0
    1.6042    0.5994    0.8579 O   0  0  0  0  0  0  0  0  0  0  0  0
    2.3425    0.3123    2.0717 C   0  0  0  0  0  0  0  0  0  0  0  0
    3.4569    1.3172    2.2724 C   0  0  0  0  0  0  0  0  0  0  0  0
    1.6950   -2.1816   -0.1217 S   0  0  0  0  0  0  0  0  0  0  0  0
   -0.1105   -2.2318   -0.1482 C   0  0  0  0  0  0  0  0  0  0  0  0
   -0.8833   -1.4547    1.3165 S   0  0  0  0  0  0  0  0  0  0  0  0
   -1.8735    0.2632    0.5819 P   0  0  0  0  0  0  0  0  0  0  0  0
   -1.1187    2.0711    0.7352 S   0  0  0  0  0  0  0  0  0  0  0  0
   -3.2539    0.1451    1.3732 O   0  0  0  0  0  0  0  0  0  0  0  0
   -3.6342    0.9542    2.4989 C   0  0  0  0  0  0  0  0  0  0  0  0
   -4.9267    1.6807    2.1792 C   0  0  0  0  0  0  0  0  0  0  0  0
   -2.2716   -0.2578   -0.8563 O   0  0  0  0  0  0  0  0  0  0  0  0
   -2.8814    0.6257   -1.8253 C   0  0  0  0  0  0  0  0  0  0  0  0
   -2.7582   -0.0226   -3.1874 C   0  0  0  0  0  0  0  0  0  0  0  0
    4.4432   -2.1451   -1.7072 H   0  0  0  0  0  0  0  0  0  0  0  0
    3.0468   -1.7893   -2.7343 H   0  0  0  0  0  0  0  0  0  0  0  0
    4.6833   -1.5789   -3.3706 H   0  0  0  0  0  0  0  0  0  0  0  0
    3.5790    0.6008   -2.7404 H   0  0  0  0  0  0  0  0  0  0  0  0
    5.0943    0.3070   -1.8375 H   0  0  0  0  0  0  0  0  0  0  0  0
    1.5936    0.3815    2.8639 H   0  0  0  0  0  0  0  0  0  0  0  0
    2.7292   -0.7096    2.0174 H   0  0  0  0  0  0  0  0  0  0  0  0
    3.0504    2.3253    2.2639 H   0  0  0  0  0  0  0  0  0  0  0  0
    3.9332    1.1293    3.2295 H   0  0  0  0  0  0  0  0  0  0  0  0
    4.1935    1.2282    1.4784 H   0  0  0  0  0  0  0  0  0  0  0  0
   -0.3907   -3.2813   -0.1273 H   0  0  0  0  0  0  0  0  0  0  0  0
   -0.4758   -1.7361   -1.0467 H   0  0  0  0  0  0  0  0  0  0  0  0
   -3.7559    0.2710    3.3418 H   0  0  0  0  0  0  0  0  0  0  0  0
   -2.8311    1.6674    2.7120 H   0  0  0  0  0  0  0  0  0  0  0  0
   -5.6957    0.9672    1.8974 H   0  0  0  0  0  0  0  0  0  0  0  0
   -5.2502    2.2332    3.0551 H   0  0  0  0  0  0  0  0  0  0  0  0
   -4.7684    2.3762    1.3580 H   0  0  0  0  0  0  0  0  0  0  0  0
   -3.9251    0.7682   -1.5355 H   0  0  0  0  0  0  0  0  0  0  0  0
   -2.3609    1.5891   -1.7923 H   0  0  0  0  0  0  0  0  0  0  0  0
   -3.2184   -1.0063   -3.1740 H   0  0  0  0  0  0  0  0  0  0  0  0
   -3.2561    0.6015   -3.9219 H   0  0  0  0  0  0  0  0  0  0  0  0
   -1.7088   -0.1196   -3.4554 H   0  0  0  0  0  0  0  0  0  0  0  0
  1  2  1  0  0  0  0
  2  3  1  0  0  0  0
  3  4  2  0  0  0  0
  4  5  2  0  0  0  0
  4  6  2  0  0  0  0
  6  7  1  0  0  0  0
  7  8  1  0  0  0  0
  4  9  1  0  0  0  0
  9 10  1  0  0  0  0
 10 11  1  0  0  0  0
 11 12  1  0  0  0  0
 12 13  2  0  0  0  0
 12 14  2  0  0  0  0
 14 15  1  0  0  0  0
 15 16  1  0  0  0  0
 12 17  2  0  0  0  0
 17 18  1  0  0  0  0
 18 19  1  0  0  0  0
  1 20  1  0  0  0  0
  1 21  1  0  0  0  0
  1 22  1  0  0  0  0
  2 23  1  0  0  0  0
  2 24  1  0  0  0  0
  7 25  1  0  0  0  0
  7 26  1  0  0  0  0
  8 27  1  0  0  0  0
  8 28  1  0  0  0  0
  8 29  1  0  0  0  0
 10 30  1  0  0  0  0
 10 31  1  0  0  0  0
 15 32  1  0  0  0  0
 15 33  1  0  0  0  0
 16 34  1  0  0  0  0
 16 35  1  0  0  0  0
 16 36  1  0  0  0  0
 18 37  1  0  0  0  0
 18 38  1  0  0  0  0
 19 39  1  0  0  0  0
 19 40  1  0  0  0  0
 19 41  1  0  0  0  0
M  END
