 xtb: 6.7.1 (edcfbbe)
          04032520513D

 12 12  0     0  0            999 V2000
   -0.6920   -1.2069    0.0000 C   0  0  0  0  0  0  0  0  0  0  0  0
    0.6920   -1.2069    0.0000 C   0  0  0  0  0  0  0  0  0  0  0  0
    1.3725   -0.0000    0.0000 C   0  0  0  0  0  0  0  0  0  0  0  0
    0.6920    1.2069   -0.0000 C   0  0  0  0  0  0  0  0  0  0  0  0
   -0.6920    1.2069    0.0000 C   0  0  0  0  0  0  0  0  0  0  0  0
   -1.3725    0.0000    0.0000 C   0  0  0  0  0  0  0  0  0  0  0  0
   -3.1096   -0.0000   -0.0000 Cl  0  0  0  0  0  0  0  0  0  0  0  0
    3.1096   -0.0000   -0.0000 Cl  0  0  0  0  0  0  0  0  0  0  0  0
   -1.2356   -2.1372   -0.0001 H   0  0  0  0  0  0  0  0  0  0  0  0
    1.2356   -2.1372   -0.0000 H   0  0  0  0  0  0  0  0  0  0  0  0
    1.2356    2.1372    0.0000 H   0  0  0  0  0  0  0  0  0  0  0  0
   -1.2356    2.1372   -0.0000 H   0  0  0  0  0  0  0  0  0  0  0  0
  1  2  4  0  0  0  0
  2  3  4  0  0  0  0
  3  4  4  0  0  0  0
  4  5  4  0  0  0  0
  1  6  4  0  0  0  0
  5  6  4  0  0  0  0
  6  7  1  0  0  0  0
  3  8  1  0  0  0  0
  1  9  1  0  0  0  0
  2 10  1  0  0  0  0
  4 11  1  0  0  0  0
  5 12  1  0  0  0  0
M  END
