 xtb: 6.7.1 (edcfbbe)
          04092505213D

 41 40  0     0  0            999 V2000
    1.2055    0.1175    2.9307 C   0  0  0  0  0  0  0  0  0  0  0  0
    2.6879   -0.0559    2.6730 C   0  0  0  0  0  0  0  0  0  0  0  0
    3.0737    0.4876    1.3992 O   0  0  0  0  0  0  0  0  0  0  0  0
    2.7347   -0.2406    0.0248 P   0  0  0  0  0  0  0  0  0  0  0  0
    2.8210   -2.2033    0.1098 S   0  0  0  0  0  0  0  0  0  0  0  0
    3.6986    0.5159   -0.9761 O   0  0  0  0  0  0  0  0  0  0  0  0
    5.0856    0.8151   -0.7026 C   0  0  0  0  0  0  0  0  0  0  0  0
    5.9125   -0.4350   -0.4839 C   0  0  0  0  0  0  0  0  0  0  0  0
    0.9209    0.5717   -0.7248 S   0  0  0  0  0  0  0  0  0  0  0  0
   -0.0723   -0.9429   -0.8695 C   0  0  0  0  0  0  0  0  0  0  0  0
   -1.3883   -1.0507    0.3612 S   0  0  0  0  0  0  0  0  0  0  0  0
   -2.6654    0.3839   -0.5699 P   0  0  0  0  0  0  0  0  0  0  0  0
   -2.7954    0.2709   -2.5172 S   0  0  0  0  0  0  0  0  0  0  0  0
   -2.1091    1.7842   -0.1103 O   0  0  0  0  0  0  0  0  0  0  0  0
   -1.8881    2.1628    1.2705 C   0  0  0  0  0  0  0  0  0  0  0  0
   -3.0823    2.9124    1.8243 C   0  0  0  0  0  0  0  0  0  0  0  0
   -4.0328    0.2573    0.2296 O   0  0  0  0  0  0  0  0  0  0  0  0
   -5.0645   -0.6759   -0.1411 C   0  0  0  0  0  0  0  0  0  0  0  0
   -4.6323   -2.1162    0.0409 C   0  0  0  0  0  0  0  0  0  0  0  0
    0.9770   -0.1971    3.9438 H   0  0  0  0  0  0  0  0  0  0  0  0
    0.9221    1.1591    2.8030 H   0  0  0  0  0  0  0  0  0  0  0  0
    0.6310   -0.4963    2.2374 H   0  0  0  0  0  0  0  0  0  0  0  0
    2.9631   -1.1154    2.6975 H   0  0  0  0  0  0  0  0  0  0  0  0
    3.2897    0.5024    3.3915 H   0  0  0  0  0  0  0  0  0  0  0  0
    5.4070    1.3566   -1.5939 H   0  0  0  0  0  0  0  0  0  0  0  0
    5.1302    1.4722    0.1685 H   0  0  0  0  0  0  0  0  0  0  0  0
    5.5753   -0.9582    0.4100 H   0  0  0  0  0  0  0  0  0  0  0  0
    5.8137   -1.1072   -1.3332 H   0  0  0  0  0  0  0  0  0  0  0  0
    6.9558   -0.1613   -0.3623 H   0  0  0  0  0  0  0  0  0  0  0  0
    0.5786   -1.8095   -0.7265 H   0  0  0  0  0  0  0  0  0  0  0  0
   -0.5258   -0.9464   -1.8612 H   0  0  0  0  0  0  0  0  0  0  0  0
   -1.6817    1.2623    1.8560 H   0  0  0  0  0  0  0  0  0  0  0  0
   -0.9990    2.7954    1.2333 H   0  0  0  0  0  0  0  0  0  0  0  0
   -3.3043    3.7731    1.1993 H   0  0  0  0  0  0  0  0  0  0  0  0
   -3.9538    2.2642    1.8515 H   0  0  0  0  0  0  0  0  0  0  0  0
   -2.8536    3.2491    2.8307 H   0  0  0  0  0  0  0  0  0  0  0  0
   -5.8953   -0.4190    0.5175 H   0  0  0  0  0  0  0  0  0  0  0  0
   -5.3420   -0.4858   -1.1824 H   0  0  0  0  0  0  0  0  0  0  0  0
   -4.2395   -2.2710    1.0426 H   0  0  0  0  0  0  0  0  0  0  0  0
   -5.4854   -2.7681   -0.1176 H   0  0  0  0  0  0  0  0  0  0  0  0
   -3.8588   -2.3687   -0.6828 H   0  0  0  0  0  0  0  0  0  0  0  0
  1  2  1  0  0  0  0
  2  3  1  0  0  0  0
  3  4  2  0  0  0  0
  4  5  2  0  0  0  0
  4  6  2  0  0  0  0
  6  7  1  0  0  0  0
  7  8  1  0  0  0  0
  4  9  1  0  0  0  0
  9 10  1  0  0  0  0
 10 11  1  0  0  0  0
 11 12  1  0  0  0  0
 12 13  2  0  0  0  0
 12 14  2  0  0  0  0
 14 15  1  0  0  0  0
 15 16  1  0  0  0  0
 12 17  2  0  0  0  0
 17 18  1  0  0  0  0
 18 19  1  0  0  0  0
  1 20  1  0  0  0  0
  1 21  1  0  0  0  0
  1 22  1  0  0  0  0
  2 23  1  0  0  0  0
  2 24  1  0  0  0  0
  7 25  1  0  0  0  0
  7 26  1  0  0  0  0
  8 27  1  0  0  0  0
  8 28  1  0  0  0  0
  8 29  1  0  0  0  0
 10 30  1  0  0  0  0
 10 31  1  0  0  0  0
 15 32  1  0  0  0  0
 15 33  1  0  0  0  0
 16 34  1  0  0  0  0
 16 35  1  0  0  0  0
 16 36  1  0  0  0  0
 18 37  1  0  0  0  0
 18 38  1  0  0  0  0
 19 39  1  0  0  0  0
 19 40  1  0  0  0  0
 19 41  1  0  0  0  0
M  END
