5
 xtb: 6.7.1 (edcfbbe)
C           -0.59153064747604       -0.64140942449042        0.00003308359051
F           -1.53450304102967        0.35823591522367       -0.00006141999062
Cl           1.06595693877244        0.10059716917300        0.00000088335669
H           -0.68985413505565       -1.22783330781438       -0.91417915960670
H           -0.68988718765878       -1.22768660059254        0.91433637991104
