 xtb: 6.7.1 (edcfbbe)
          04092505203D

 41 40  0     0  0            999 V2000
    5.0129    1.0937    0.4319 C   0  0  0  0  0  0  0  0  0  0  0  0
    3.7661    1.5297   -0.3075 C   0  0  0  0  0  0  0  0  0  0  0  0
    2.9601    0.3994   -0.7056 O   0  0  0  0  0  0  0  0  0  0  0  0
    2.1642   -0.4693    0.3505 P   0  0  0  0  0  0  0  0  0  0  0  0
    1.5700    0.4708    1.9683 S   0  0  0  0  0  0  0  0  0  0  0  0
    3.1743   -1.6605    0.6513 O   0  0  0  0  0  0  0  0  0  0  0  0
    2.9939   -2.5542    1.7607 C   0  0  0  0  0  0  0  0  0  0  0  0
    1.9002   -3.5667    1.4867 C   0  0  0  0  0  0  0  0  0  0  0  0
    0.7367   -1.3531   -0.9514 S   0  0  0  0  0  0  0  0  0  0  0  0
    0.2221    0.1316   -1.8609 C   0  0  0  0  0  0  0  0  0  0  0  0
   -0.5604    1.3878   -0.8227 S   0  0  0  0  0  0  0  0  0  0  0  0
   -2.4108    0.3521   -0.5619 P   0  0  0  0  0  0  0  0  0  0  0  0
   -3.0192   -0.6703   -2.1115 S   0  0  0  0  0  0  0  0  0  0  0  0
   -3.3999    1.4729   -0.0227 O   0  0  0  0  0  0  0  0  0  0  0  0
   -4.1711    2.3170   -0.8989 C   0  0  0  0  0  0  0  0  0  0  0  0
   -3.3015    3.2482   -1.7180 C   0  0  0  0  0  0  0  0  0  0  0  0
   -2.2238   -0.5597    0.7096 O   0  0  0  0  0  0  0  0  0  0  0  0
   -2.0278   -0.0333    2.0475 C   0  0  0  0  0  0  0  0  0  0  0  0
   -1.6723   -1.1974    2.9462 C   0  0  0  0  0  0  0  0  0  0  0  0
    5.5653    0.3678   -0.1589 H   0  0  0  0  0  0  0  0  0  0  0  0
    5.6394    1.9594    0.6223 H   0  0  0  0  0  0  0  0  0  0  0  0
    4.7390    0.6386    1.3827 H   0  0  0  0  0  0  0  0  0  0  0  0
    4.0052    2.0256   -1.2491 H   0  0  0  0  0  0  0  0  0  0  0  0
    3.1544    2.1894    0.3164 H   0  0  0  0  0  0  0  0  0  0  0  0
    3.9656   -3.0352    1.8795 H   0  0  0  0  0  0  0  0  0  0  0  0
    2.7610   -1.9603    2.6517 H   0  0  0  0  0  0  0  0  0  0  0  0
    1.8209   -4.2519    2.3246 H   0  0  0  0  0  0  0  0  0  0  0  0
    0.9453   -3.0582    1.3510 H   0  0  0  0  0  0  0  0  0  0  0  0
    2.1204   -4.1250    0.5807 H   0  0  0  0  0  0  0  0  0  0  0  0
   -0.4980   -0.2151   -2.6047 H   0  0  0  0  0  0  0  0  0  0  0  0
    1.0874    0.5915   -2.3297 H   0  0  0  0  0  0  0  0  0  0  0  0
   -4.7710    1.6762   -1.5520 H   0  0  0  0  0  0  0  0  0  0  0  0
   -4.8211    2.8678   -0.2174 H   0  0  0  0  0  0  0  0  0  0  0  0
   -2.6178    3.7941   -1.0724 H   0  0  0  0  0  0  0  0  0  0  0  0
   -2.7222    2.6776   -2.4421 H   0  0  0  0  0  0  0  0  0  0  0  0
   -3.9343    3.9511   -2.2503 H   0  0  0  0  0  0  0  0  0  0  0  0
   -1.2229    0.7075    2.0223 H   0  0  0  0  0  0  0  0  0  0  0  0
   -2.9547    0.4512    2.3584 H   0  0  0  0  0  0  0  0  0  0  0  0
   -2.4418   -1.9619    2.8905 H   0  0  0  0  0  0  0  0  0  0  0  0
   -0.7228   -1.6282    2.6393 H   0  0  0  0  0  0  0  0  0  0  0  0
   -1.5811   -0.8408    3.9668 H   0  0  0  0  0  0  0  0  0  0  0  0
  1  2  1  0  0  0  0
  2  3  1  0  0  0  0
  3  4  2  0  0  0  0
  4  5  2  0  0  0  0
  4  6  2  0  0  0  0
  6  7  1  0  0  0  0
  7  8  1  0  0  0  0
  4  9  1  0  0  0  0
  9 10  1  0  0  0  0
 10 11  1  0  0  0  0
 11 12  1  0  0  0  0
 12 13  2  0  0  0  0
 12 14  2  0  0  0  0
 14 15  1  0  0  0  0
 15 16  1  0  0  0  0
 12 17  2  0  0  0  0
 17 18  1  0  0  0  0
 18 19  1  0  0  0  0
  1 20  1  0  0  0  0
  1 21  1  0  0  0  0
  1 22  1  0  0  0  0
  2 23  1  0  0  0  0
  2 24  1  0  0  0  0
  7 25  1  0  0  0  0
  7 26  1  0  0  0  0
  8 27  1  0  0  0  0
  8 28  1  0  0  0  0
  8 29  1  0  0  0  0
 10 30  1  0  0  0  0
 10 31  1  0  0  0  0
 15 32  1  0  0  0  0
 15 33  1  0  0  0  0
 16 34  1  0  0  0  0
 16 35  1  0  0  0  0
 16 36  1  0  0  0  0
 18 37  1  0  0  0  0
 18 38  1  0  0  0  0
 19 39  1  0  0  0  0
 19 40  1  0  0  0  0
 19 41  1  0  0  0  0
M  END
