  18
 
 C          1.4109046908       -1.4194612824       -0.2126334620
 C          1.0894319450       -0.0296683425        0.3340687996
 C          2.2043952109        0.9469963756       -0.0374914965
 C         -0.2489378907        0.4931445808       -0.1951219986
 C         -1.4569404709       -0.3030861769        0.2904175497
 O         -2.6306641988        0.3722598681       -0.1264247075
 H          0.6889742278       -2.1538915196        0.1328152668
 H          2.3976644644       -1.7331202847        0.1186407442
 H          1.4015216976       -1.4079239077       -1.2999405511
 H          1.0293577433       -0.0889242279        1.4268886428
 H          2.0042026535        1.9337548132        0.3727573189
 H          2.2834159934        1.0341968140       -1.1186221855
 H          3.1590511716        0.6003908517        0.3506142811
 H         -0.2452451764        0.4897946049       -1.2866793645
 H         -0.3908281425        1.5264245411        0.1288629488
 H         -1.4410759472       -1.3161677658       -0.1293698339
 H         -1.4328647908       -0.3756422124        1.3870211763
 H         -3.4067432004       -0.1322870460        0.1510956299
          18
        -20.89540934
 C          1.3457018090       -1.3918989419        0.1387297057
 C          0.8410141402        0.0444283572        0.2583810507
 C          2.0119878232        1.0184554400        0.1404090772
 C         -0.2162212191        0.3561339255       -0.8086409167
 C         -1.5782165275       -0.2712936676       -0.5059098260
 O         -2.1498816694        0.1928641968        0.6993919336
 H          0.5332608645       -2.1031568225        0.2609042589
 H          2.0895127018       -1.5943802548        0.9055860671
 H          1.8032596134       -1.5521801740       -0.8353713460
 H          0.3748669987        0.1686837556        1.2423345979
 H          2.7627106096        0.8015981414        0.8959448684
 H          1.6790110513        2.0451541903        0.2747115593
 H          2.4759990540        0.9317443355       -0.8398347879
 H          0.1223341018       -0.0052713571       -1.7808333571
 H         -0.3429043846        1.4393626895       -0.8795748558
 H         -2.2636262117       -0.0819188635       -1.3439197659
 H         -1.4868150228       -1.3520449655       -0.3812571386
 H         -2.2716915819        1.1506811134        0.6389316348
