 xtb: 6.7.1 (edcfbbe)
          04092505203D

 41 40  0     0  0            999 V2000
    3.4076   -1.0899   -2.9718 C   0  0  0  0  0  0  0  0  0  0  0  0
    2.1732   -0.5924   -2.2501 C   0  0  0  0  0  0  0  0  0  0  0  0
    2.5453    0.2633   -1.1424 O   0  0  0  0  0  0  0  0  0  0  0  0
    2.5694   -0.2331    0.3542 P   0  0  0  0  0  0  0  0  0  0  0  0
    3.2874    1.1336    1.5517 S   0  0  0  0  0  0  0  0  0  0  0  0
    3.3831   -1.5951    0.2633 O   0  0  0  0  0  0  0  0  0  0  0  0
    3.9727   -2.2236    1.4180 C   0  0  0  0  0  0  0  0  0  0  0  0
    2.9323   -2.7035    2.4086 C   0  0  0  0  0  0  0  0  0  0  0  0
    0.5776   -0.8454    0.7582 S   0  0  0  0  0  0  0  0  0  0  0  0
   -0.0063    0.8270    1.2063 C   0  0  0  0  0  0  0  0  0  0  0  0
   -1.7885    0.8755    1.3976 S   0  0  0  0  0  0  0  0  0  0  0  0
   -2.3461    0.8927   -0.6731 P   0  0  0  0  0  0  0  0  0  0  0  0
   -0.8738    1.2918   -1.9035 S   0  0  0  0  0  0  0  0  0  0  0  0
   -3.4979    1.9562   -0.7927 O   0  0  0  0  0  0  0  0  0  0  0  0
   -4.8729    1.7539   -0.3771 C   0  0  0  0  0  0  0  0  0  0  0  0
   -4.9953    1.4829    1.1065 C   0  0  0  0  0  0  0  0  0  0  0  0
   -3.1264   -0.4609   -0.9652 O   0  0  0  0  0  0  0  0  0  0  0  0
   -2.4843   -1.7368   -1.1469 C   0  0  0  0  0  0  0  0  0  0  0  0
   -2.5156   -2.5472    0.1340 C   0  0  0  0  0  0  0  0  0  0  0  0
    4.0099   -0.2469   -3.2991 H   0  0  0  0  0  0  0  0  0  0  0  0
    4.0036   -1.7134   -2.3106 H   0  0  0  0  0  0  0  0  0  0  0  0
    3.1017   -1.6697   -3.8368 H   0  0  0  0  0  0  0  0  0  0  0  0
    1.5735   -1.4239   -1.8689 H   0  0  0  0  0  0  0  0  0  0  0  0
    1.5529    0.0390   -2.8906 H   0  0  0  0  0  0  0  0  0  0  0  0
    4.5414   -3.0539    0.9968 H   0  0  0  0  0  0  0  0  0  0  0  0
    4.6520   -1.5065    1.8887 H   0  0  0  0  0  0  0  0  0  0  0  0
    2.1877   -3.3186    1.9096 H   0  0  0  0  0  0  0  0  0  0  0  0
    3.4203   -3.2846    3.1844 H   0  0  0  0  0  0  0  0  0  0  0  0
    2.4346   -1.8514    2.8691 H   0  0  0  0  0  0  0  0  0  0  0  0
    0.2948    1.5180    0.4156 H   0  0  0  0  0  0  0  0  0  0  0  0
    0.4315    1.1108    2.1615 H   0  0  0  0  0  0  0  0  0  0  0  0
   -5.3553    2.6912   -0.6581 H   0  0  0  0  0  0  0  0  0  0  0  0
   -5.2860    0.9308   -0.9626 H   0  0  0  0  0  0  0  0  0  0  0  0
   -6.0467    1.4177    1.3689 H   0  0  0  0  0  0  0  0  0  0  0  0
   -4.5070    0.5440    1.3616 H   0  0  0  0  0  0  0  0  0  0  0  0
   -4.5319    2.2817    1.6799 H   0  0  0  0  0  0  0  0  0  0  0  0
   -3.0608   -2.2226   -1.9365 H   0  0  0  0  0  0  0  0  0  0  0  0
   -1.4590   -1.5753   -1.4939 H   0  0  0  0  0  0  0  0  0  0  0  0
   -1.9111   -2.0727    0.9039 H   0  0  0  0  0  0  0  0  0  0  0  0
   -3.5375   -2.6407    0.4900 H   0  0  0  0  0  0  0  0  0  0  0  0
   -2.1128   -3.5349   -0.0640 H   0  0  0  0  0  0  0  0  0  0  0  0
  1  2  1  0  0  0  0
  2  3  1  0  0  0  0
  3  4  2  0  0  0  0
  4  5  2  0  0  0  0
  4  6  2  0  0  0  0
  6  7  1  0  0  0  0
  7  8  1  0  0  0  0
  4  9  1  0  0  0  0
  9 10  1  0  0  0  0
 10 11  1  0  0  0  0
 11 12  1  0  0  0  0
 12 13  2  0  0  0  0
 12 14  2  0  0  0  0
 14 15  1  0  0  0  0
 15 16  1  0  0  0  0
 12 17  2  0  0  0  0
 17 18  1  0  0  0  0
 18 19  1  0  0  0  0
  1 20  1  0  0  0  0
  1 21  1  0  0  0  0
  1 22  1  0  0  0  0
  2 23  1  0  0  0  0
  2 24  1  0  0  0  0
  7 25  1  0  0  0  0
  7 26  1  0  0  0  0
  8 27  1  0  0  0  0
  8 28  1  0  0  0  0
  8 29  1  0  0  0  0
 10 30  1  0  0  0  0
 10 31  1  0  0  0  0
 15 32  1  0  0  0  0
 15 33  1  0  0  0  0
 16 34  1  0  0  0  0
 16 35  1  0  0  0  0
 16 36  1  0  0  0  0
 18 37  1  0  0  0  0
 18 38  1  0  0  0  0
 19 39  1  0  0  0  0
 19 40  1  0  0  0  0
 19 41  1  0  0  0  0
M  END
