 xtb: 6.7.1 (edcfbbe)
          04092505203D

 41 40  0     0  0            999 V2000
    4.0033   -1.7819   -2.2629 C   0  0  0  0  0  0  0  0  0  0  0  0
    4.6965   -1.3773   -0.9786 C   0  0  0  0  0  0  0  0  0  0  0  0
    3.7648   -1.1378    0.0923 O   0  0  0  0  0  0  0  0  0  0  0  0
    2.7220    0.0566    0.0654 P   0  0  0  0  0  0  0  0  0  0  0  0
    3.3512    1.7558   -0.6831 S   0  0  0  0  0  0  0  0  0  0  0  0
    2.3279    0.2256    1.5813 O   0  0  0  0  0  0  0  0  0  0  0  0
    2.3303   -0.8135    2.5928 C   0  0  0  0  0  0  0  0  0  0  0  0
    1.3517   -1.9254    2.2840 C   0  0  0  0  0  0  0  0  0  0  0  0
    1.0028   -0.7246   -0.9387 S   0  0  0  0  0  0  0  0  0  0  0  0
    0.0553    0.8091   -0.8635 C   0  0  0  0  0  0  0  0  0  0  0  0
   -0.9403    0.9547    0.6428 S   0  0  0  0  0  0  0  0  0  0  0  0
   -2.7801    0.3334   -0.2519 P   0  0  0  0  0  0  0  0  0  0  0  0
   -3.2143    1.1803   -1.9604 S   0  0  0  0  0  0  0  0  0  0  0  0
   -3.8450    0.4929    0.9168 O   0  0  0  0  0  0  0  0  0  0  0  0
   -4.5673    1.7149    1.1548 C   0  0  0  0  0  0  0  0  0  0  0  0
   -3.6560    2.8498    1.5738 C   0  0  0  0  0  0  0  0  0  0  0  0
   -2.6673   -1.2291   -0.3985 O   0  0  0  0  0  0  0  0  0  0  0  0
   -2.4614   -2.1206    0.7300 C   0  0  0  0  0  0  0  0  0  0  0  0
   -1.6287   -3.2932    0.2562 C   0  0  0  0  0  0  0  0  0  0  0  0
    3.4287   -0.9444   -2.6563 H   0  0  0  0  0  0  0  0  0  0  0  0
    4.7488   -2.0696   -2.9973 H   0  0  0  0  0  0  0  0  0  0  0  0
    3.3294   -2.6163   -2.0860 H   0  0  0  0  0  0  0  0  0  0  0  0
    5.2884   -0.4698   -1.1311 H   0  0  0  0  0  0  0  0  0  0  0  0
    5.3317   -2.1765   -0.5939 H   0  0  0  0  0  0  0  0  0  0  0  0
    3.3477   -1.1983    2.6817 H   0  0  0  0  0  0  0  0  0  0  0  0
    2.0534   -0.2727    3.4990 H   0  0  0  0  0  0  0  0  0  0  0  0
    1.6583   -2.4601    1.3876 H   0  0  0  0  0  0  0  0  0  0  0  0
    1.3268   -2.6174    3.1198 H   0  0  0  0  0  0  0  0  0  0  0  0
    0.3574   -1.5141    2.1309 H   0  0  0  0  0  0  0  0  0  0  0  0
   -0.6126    0.8390   -1.7261 H   0  0  0  0  0  0  0  0  0  0  0  0
    0.7528    1.6485   -0.8892 H   0  0  0  0  0  0  0  0  0  0  0  0
   -5.1120    1.9764    0.2426 H   0  0  0  0  0  0  0  0  0  0  0  0
   -5.2705    1.4491    1.9454 H   0  0  0  0  0  0  0  0  0  0  0  0
   -3.0093    3.1342    0.7445 H   0  0  0  0  0  0  0  0  0  0  0  0
   -4.2577    3.7073    1.8574 H   0  0  0  0  0  0  0  0  0  0  0  0
   -3.0359    2.5491    2.4147 H   0  0  0  0  0  0  0  0  0  0  0  0
   -1.9643   -1.5638    1.5294 H   0  0  0  0  0  0  0  0  0  0  0  0
   -3.4478   -2.4358    1.0740 H   0  0  0  0  0  0  0  0  0  0  0  0
   -2.1479   -3.8177   -0.5404 H   0  0  0  0  0  0  0  0  0  0  0  0
   -0.6725   -2.9445   -0.1258 H   0  0  0  0  0  0  0  0  0  0  0  0
   -1.4621   -3.9710    1.0869 H   0  0  0  0  0  0  0  0  0  0  0  0
  1  2  1  0  0  0  0
  2  3  1  0  0  0  0
  3  4  2  0  0  0  0
  4  5  2  0  0  0  0
  4  6  2  0  0  0  0
  6  7  1  0  0  0  0
  7  8  1  0  0  0  0
  4  9  1  0  0  0  0
  9 10  1  0  0  0  0
 10 11  1  0  0  0  0
 11 12  1  0  0  0  0
 12 13  2  0  0  0  0
 12 14  2  0  0  0  0
 14 15  1  0  0  0  0
 15 16  1  0  0  0  0
 12 17  2  0  0  0  0
 17 18  1  0  0  0  0
 18 19  1  0  0  0  0
  1 20  1  0  0  0  0
  1 21  1  0  0  0  0
  1 22  1  0  0  0  0
  2 23  1  0  0  0  0
  2 24  1  0  0  0  0
  7 25  1  0  0  0  0
  7 26  1  0  0  0  0
  8 27  1  0  0  0  0
  8 28  1  0  0  0  0
  8 29  1  0  0  0  0
 10 30  1  0  0  0  0
 10 31  1  0  0  0  0
 15 32  1  0  0  0  0
 15 33  1  0  0  0  0
 16 34  1  0  0  0  0
 16 35  1  0  0  0  0
 16 36  1  0  0  0  0
 18 37  1  0  0  0  0
 18 38  1  0  0  0  0
 19 39  1  0  0  0  0
 19 40  1  0  0  0  0
 19 41  1  0  0  0  0
M  END
