 xtb: 6.7.1 (edcfbbe)
          04092507313D

 38 37  0     0  0            999 V2000
    4.6376   -3.4571   -1.8779 C   0  0  0  0  0  0  0  0  0  0  0  0
    3.7755   -3.6252   -0.6366 C   0  0  0  0  0  0  0  0  0  0  0  0
    3.4234   -2.3459   -0.0754 O   0  0  0  0  0  0  0  0  0  0  0  0
    2.3603   -1.7240   -0.5467 C   0  0  0  0  0  0  0  0  0  0  0  0
    1.6283   -2.1617   -1.4057 O   0  0  0  0  0  0  0  0  0  0  0  0
    2.1762   -0.3782    0.1299 C   0  0  0  0  0  0  0  0  0  0  0  0
    0.7589    0.1277   -0.0747 C   0  0  0  0  0  0  0  0  0  0  0  0
    0.4745    0.0024   -1.1286 H   0  0  0  0  0  0  0  0  0  0  0  0
    0.5413    1.5829    0.2820 C   0  0  0  0  0  0  0  0  0  0  0  0
   -0.5075    1.9702    0.7606 O   0  0  0  0  0  0  0  0  0  0  0  0
    1.5564    2.3408   -0.0194 O   0  0  0  0  0  0  0  0  0  0  0  0
    1.4546    3.7617    0.2299 C   0  0  0  0  0  0  0  0  0  0  0  0
    1.8370    4.0868    1.6640 C   0  0  0  0  0  0  0  0  0  0  0  0
   -0.4339   -0.8511    0.9133 S   0  0  0  0  0  0  0  0  0  0  0  0
   -2.2106    0.0620    0.2115 P   0  0  0  0  0  0  0  0  0  0  0  0
   -2.1867    0.9218   -1.5583 S   0  0  0  0  0  0  0  0  0  0  0  0
   -3.1915   -1.2076    0.2438 O   0  0  0  0  0  0  0  0  0  0  0  0
   -3.0195   -2.2872   -0.6759 C   0  0  0  0  0  0  0  0  0  0  0  0
   -2.9481    0.7972    1.4047 O   0  0  0  0  0  0  0  0  0  0  0  0
   -3.2051    2.2016    1.4822 C   0  0  0  0  0  0  0  0  0  0  0  0
    5.5198   -2.8677   -1.6440 H   0  0  0  0  0  0  0  0  0  0  0  0
    4.9443   -4.4340   -2.2367 H   0  0  0  0  0  0  0  0  0  0  0  0
    4.0723   -2.9563   -2.6606 H   0  0  0  0  0  0  0  0  0  0  0  0
    4.3201   -4.1310    0.1606 H   0  0  0  0  0  0  0  0  0  0  0  0
    2.8556   -4.1668   -0.8741 H   0  0  0  0  0  0  0  0  0  0  0  0
    2.8780    0.3276   -0.3202 H   0  0  0  0  0  0  0  0  0  0  0  0
    2.4141   -0.4811    1.1882 H   0  0  0  0  0  0  0  0  0  0  0  0
    2.1507    4.2065   -0.4808 H   0  0  0  0  0  0  0  0  0  0  0  0
    0.4318    4.0806    0.0129 H   0  0  0  0  0  0  0  0  0  0  0  0
    1.7989    5.1616    1.8071 H   0  0  0  0  0  0  0  0  0  0  0  0
    1.1425    3.6152    2.3553 H   0  0  0  0  0  0  0  0  0  0  0  0
    2.8422    3.7332    1.8746 H   0  0  0  0  0  0  0  0  0  0  0  0
   -3.8579   -2.9563   -0.5013 H   0  0  0  0  0  0  0  0  0  0  0  0
   -2.0747   -2.8010   -0.4908 H   0  0  0  0  0  0  0  0  0  0  0  0
   -3.0370   -1.9121   -1.7012 H   0  0  0  0  0  0  0  0  0  0  0  0
   -4.2182    2.3025    1.8652 H   0  0  0  0  0  0  0  0  0  0  0  0
   -3.1241    2.6594    0.4949 H   0  0  0  0  0  0  0  0  0  0  0  0
   -2.4845    2.6572    2.1582 H   0  0  0  0  0  0  0  0  0  0  0  0
  1  2  1  0  0  0  0
  2  3  1  0  0  0  0
  3  4  1  0  0  0  0
  4  5  2  0  0  0  0
  4  6  1  0  0  0  0
  6  7  1  0  0  0  0
  7  8  1  0  0  0  0
  7  9  1  0  0  0  0
  9 10  2  0  0  0  0
  9 11  4  0  0  0  0
 11 12  1  0  0  0  0
 12 13  1  0  0  0  0
  7 14  1  0  0  0  0
 14 15  1  0  0  0  0
 15 16  2  0  0  0  0
 15 17  1  0  0  0  0
 17 18  1  0  0  0  0
 15 19  2  0  0  0  0
 19 20  1  0  0  0  0
  1 21  1  0  0  0  0
  1 22  1  0  0  0  0
  1 23  1  0  0  0  0
  2 24  1  0  0  0  0
  2 25  1  0  0  0  0
  6 26  1  0  0  0  0
  6 27  1  0  0  0  0
 12 28  1  0  0  0  0
 12 29  1  0  0  0  0
 13 30  1  0  0  0  0
 13 31  1  0  0  0  0
 13 32  1  0  0  0  0
 18 33  1  0  0  0  0
 18 34  1  0  0  0  0
 18 35  1  0  0  0  0
 20 36  1  0  0  0  0
 20 37  1  0  0  0  0
 20 38  1  0  0  0  0
M  END
