 xtb: 6.7.1 (edcfbbe)
          04092505203D

 41 40  0     0  0            999 V2000
    5.5606    0.3766   -0.9345 C   0  0  0  0  0  0  0  0  0  0  0  0
    4.7884   -0.9202   -1.0537 C   0  0  0  0  0  0  0  0  0  0  0  0
    3.6380   -0.9442   -0.1842 O   0  0  0  0  0  0  0  0  0  0  0  0
    2.3726   -0.0248   -0.4251 P   0  0  0  0  0  0  0  0  0  0  0  0
    1.9243    0.2855   -2.3129 S   0  0  0  0  0  0  0  0  0  0  0  0
    2.7606    1.2660    0.4165 O   0  0  0  0  0  0  0  0  0  0  0  0
    1.9907    2.4804    0.4404 C   0  0  0  0  0  0  0  0  0  0  0  0
    1.1433    2.5560    1.6950 C   0  0  0  0  0  0  0  0  0  0  0  0
    0.9948   -1.0848    0.7667 S   0  0  0  0  0  0  0  0  0  0  0  0
   -0.0226   -1.8276   -0.5617 C   0  0  0  0  0  0  0  0  0  0  0  0
   -1.7481   -1.9803   -0.0711 S   0  0  0  0  0  0  0  0  0  0  0  0
   -2.1455    0.0895    0.2801 P   0  0  0  0  0  0  0  0  0  0  0  0
   -1.2883    1.3791   -0.9145 S   0  0  0  0  0  0  0  0  0  0  0  0
   -1.7441    0.3364    1.7843 O   0  0  0  0  0  0  0  0  0  0  0  0
   -2.2328   -0.4548    2.8962 C   0  0  0  0  0  0  0  0  0  0  0  0
   -3.4218    0.2171    3.5516 C   0  0  0  0  0  0  0  0  0  0  0  0
   -3.7334    0.1497    0.3290 O   0  0  0  0  0  0  0  0  0  0  0  0
   -4.5446    0.3458   -0.8429 C   0  0  0  0  0  0  0  0  0  0  0  0
   -4.4490   -0.8126   -1.8145 C   0  0  0  0  0  0  0  0  0  0  0  0
    4.9566    1.2017   -1.3100 H   0  0  0  0  0  0  0  0  0  0  0  0
    5.8117    0.5700    0.1051 H   0  0  0  0  0  0  0  0  0  0  0  0
    6.4709    0.3095   -1.5221 H   0  0  0  0  0  0  0  0  0  0  0  0
    5.3788   -1.7765   -0.7256 H   0  0  0  0  0  0  0  0  0  0  0  0
    4.4458   -1.0723   -2.0822 H   0  0  0  0  0  0  0  0  0  0  0  0
    2.7323    3.2814    0.4185 H   0  0  0  0  0  0  0  0  0  0  0  0
    1.3698    2.5358   -0.4603 H   0  0  0  0  0  0  0  0  0  0  0  0
    1.7652    2.4034    2.5726 H   0  0  0  0  0  0  0  0  0  0  0  0
    0.6741    3.5334    1.7459 H   0  0  0  0  0  0  0  0  0  0  0  0
    0.3635    1.7970    1.6774 H   0  0  0  0  0  0  0  0  0  0  0  0
    0.3273   -2.8364   -0.7659 H   0  0  0  0  0  0  0  0  0  0  0  0
    0.0578   -1.1919   -1.4483 H   0  0  0  0  0  0  0  0  0  0  0  0
   -2.4903   -1.4538    2.5341 H   0  0  0  0  0  0  0  0  0  0  0  0
   -1.3814   -0.5188    3.5764 H   0  0  0  0  0  0  0  0  0  0  0  0
   -4.2565    0.2667    2.8578 H   0  0  0  0  0  0  0  0  0  0  0  0
   -3.7147   -0.3573    4.4248 H   0  0  0  0  0  0  0  0  0  0  0  0
   -3.1584    1.2259    3.8572 H   0  0  0  0  0  0  0  0  0  0  0  0
   -5.5543    0.4531   -0.4442 H   0  0  0  0  0  0  0  0  0  0  0  0
   -4.2340    1.2783   -1.3241 H   0  0  0  0  0  0  0  0  0  0  0  0
   -4.6356   -1.7534   -1.3028 H   0  0  0  0  0  0  0  0  0  0  0  0
   -5.1817   -0.6782   -2.6039 H   0  0  0  0  0  0  0  0  0  0  0  0
   -3.4560   -0.8457   -2.2604 H   0  0  0  0  0  0  0  0  0  0  0  0
  1  2  1  0  0  0  0
  2  3  1  0  0  0  0
  3  4  2  0  0  0  0
  4  5  2  0  0  0  0
  4  6  2  0  0  0  0
  6  7  1  0  0  0  0
  7  8  1  0  0  0  0
  4  9  1  0  0  0  0
  9 10  1  0  0  0  0
 10 11  1  0  0  0  0
 11 12  1  0  0  0  0
 12 13  2  0  0  0  0
 12 14  2  0  0  0  0
 14 15  1  0  0  0  0
 15 16  1  0  0  0  0
 12 17  2  0  0  0  0
 17 18  1  0  0  0  0
 18 19  1  0  0  0  0
  1 20  1  0  0  0  0
  1 21  1  0  0  0  0
  1 22  1  0  0  0  0
  2 23  1  0  0  0  0
  2 24  1  0  0  0  0
  7 25  1  0  0  0  0
  7 26  1  0  0  0  0
  8 27  1  0  0  0  0
  8 28  1  0  0  0  0
  8 29  1  0  0  0  0
 10 30  1  0  0  0  0
 10 31  1  0  0  0  0
 15 32  1  0  0  0  0
 15 33  1  0  0  0  0
 16 34  1  0  0  0  0
 16 35  1  0  0  0  0
 16 36  1  0  0  0  0
 18 37  1  0  0  0  0
 18 38  1  0  0  0  0
 19 39  1  0  0  0  0
 19 40  1  0  0  0  0
 19 41  1  0  0  0  0
M  END
