 xtb: 6.7.1 (edcfbbe)
          04092505203D

 41 40  0     0  0            999 V2000
    3.3421   -0.2154   -2.5322 C   0  0  0  0  0  0  0  0  0  0  0  0
    1.9209    0.2174   -2.2456 C   0  0  0  0  0  0  0  0  0  0  0  0
    1.3279   -0.5565   -1.1857 O   0  0  0  0  0  0  0  0  0  0  0  0
    1.8387   -0.4759    0.3069 P   0  0  0  0  0  0  0  0  0  0  0  0
    2.5073    1.2456    0.9773 S   0  0  0  0  0  0  0  0  0  0  0  0
    2.9177   -1.6445    0.3179 O   0  0  0  0  0  0  0  0  0  0  0  0
    3.7348   -1.9066    1.4754 C   0  0  0  0  0  0  0  0  0  0  0  0
    4.9267   -2.7297    1.0300 C   0  0  0  0  0  0  0  0  0  0  0  0
    0.2621   -1.3524    1.3865 S   0  0  0  0  0  0  0  0  0  0  0  0
   -0.5522    0.1251    2.0840 C   0  0  0  0  0  0  0  0  0  0  0  0
   -2.2815    0.2567    1.5919 S   0  0  0  0  0  0  0  0  0  0  0  0
   -1.9513    0.7832   -0.4425 P   0  0  0  0  0  0  0  0  0  0  0  0
   -0.5708    2.1351   -0.7591 S   0  0  0  0  0  0  0  0  0  0  0  0
   -3.4197    1.0772   -0.9716 O   0  0  0  0  0  0  0  0  0  0  0  0
   -4.3883    1.9224   -0.3206 C   0  0  0  0  0  0  0  0  0  0  0  0
   -3.8619    3.3152   -0.0469 C   0  0  0  0  0  0  0  0  0  0  0  0
   -1.5967   -0.5346   -1.2285 O   0  0  0  0  0  0  0  0  0  0  0  0
   -2.4381   -1.7189   -1.2160 C   0  0  0  0  0  0  0  0  0  0  0  0
   -1.5779   -2.9038   -1.6013 C   0  0  0  0  0  0  0  0  0  0  0  0
    3.9755    0.0140   -1.6759 H   0  0  0  0  0  0  0  0  0  0  0  0
    3.3769   -1.2850   -2.7216 H   0  0  0  0  0  0  0  0  0  0  0  0
    3.7125    0.3223   -3.3994 H   0  0  0  0  0  0  0  0  0  0  0  0
    1.2572    0.0439   -3.0941 H   0  0  0  0  0  0  0  0  0  0  0  0
    1.8794    1.2761   -1.9671 H   0  0  0  0  0  0  0  0  0  0  0  0
    4.0443   -0.9484    1.9068 H   0  0  0  0  0  0  0  0  0  0  0  0
    3.1271   -2.4476    2.2058 H   0  0  0  0  0  0  0  0  0  0  0  0
    4.5866   -3.6502    0.5648 H   0  0  0  0  0  0  0  0  0  0  0  0
    5.5220   -2.1714    0.3131 H   0  0  0  0  0  0  0  0  0  0  0  0
    5.5376   -2.9666    1.8948 H   0  0  0  0  0  0  0  0  0  0  0  0
   -0.0012    1.0136    1.7619 H   0  0  0  0  0  0  0  0  0  0  0  0
   -0.5498    0.0318    3.1669 H   0  0  0  0  0  0  0  0  0  0  0  0
   -5.2228    1.9417   -1.0236 H   0  0  0  0  0  0  0  0  0  0  0  0
   -4.6936    1.4343    0.6088 H   0  0  0  0  0  0  0  0  0  0  0  0
   -3.5021    3.7733   -0.9653 H   0  0  0  0  0  0  0  0  0  0  0  0
   -4.6552    3.9249    0.3732 H   0  0  0  0  0  0  0  0  0  0  0  0
   -3.0347    3.2728    0.6605 H   0  0  0  0  0  0  0  0  0  0  0  0
   -2.8577   -1.8405   -0.2127 H   0  0  0  0  0  0  0  0  0  0  0  0
   -3.2462   -1.5546   -1.9310 H   0  0  0  0  0  0  0  0  0  0  0  0
   -1.1453   -2.7473   -2.5853 H   0  0  0  0  0  0  0  0  0  0  0  0
   -0.7714   -3.0310   -0.8832 H   0  0  0  0  0  0  0  0  0  0  0  0
   -2.1914   -3.7988   -1.6137 H   0  0  0  0  0  0  0  0  0  0  0  0
  1  2  1  0  0  0  0
  2  3  1  0  0  0  0
  3  4  2  0  0  0  0
  4  5  2  0  0  0  0
  4  6  2  0  0  0  0
  6  7  1  0  0  0  0
  7  8  1  0  0  0  0
  4  9  1  0  0  0  0
  9 10  1  0  0  0  0
 10 11  1  0  0  0  0
 11 12  1  0  0  0  0
 12 13  2  0  0  0  0
 12 14  2  0  0  0  0
 14 15  1  0  0  0  0
 15 16  1  0  0  0  0
 12 17  2  0  0  0  0
 17 18  1  0  0  0  0
 18 19  1  0  0  0  0
  1 20  1  0  0  0  0
  1 21  1  0  0  0  0
  1 22  1  0  0  0  0
  2 23  1  0  0  0  0
  2 24  1  0  0  0  0
  7 25  1  0  0  0  0
  7 26  1  0  0  0  0
  8 27  1  0  0  0  0
  8 28  1  0  0  0  0
  8 29  1  0  0  0  0
 10 30  1  0  0  0  0
 10 31  1  0  0  0  0
 15 32  1  0  0  0  0
 15 33  1  0  0  0  0
 16 34  1  0  0  0  0
 16 35  1  0  0  0  0
 16 36  1  0  0  0  0
 18 37  1  0  0  0  0
 18 38  1  0  0  0  0
 19 39  1  0  0  0  0
 19 40  1  0  0  0  0
 19 41  1  0  0  0  0
M  END
