6
 xtb: 6.7.1 (edcfbbe)
C            0.00004940036252        1.81711532304423        0.00355966320658
C            0.00001862597664        0.49405170214318        0.00026973255586
Cl           1.45827813118161       -0.46179713212224       -0.00084090964454
Cl          -1.45828528676739       -0.46172981979176       -0.00107504353302
H           -0.93479271972170        2.36524969307344        0.00365273808587
H            0.93491843619461        2.36520538439132        0.00381882405922
