12
 xtb: 6.7.1 (edcfbbe)
C            0.00003562157735       -2.57327537864032        0.00002179345312
C            1.20702061721501       -1.88636770998713        0.00001730314703
C            1.20178700204902       -0.49718172468395        0.00000472338394
C           -0.00000038584654        0.21989813676151       -0.00000134955718
C           -1.20176869062809       -0.49721258178023        0.00000491067512
C           -1.20696680720956       -1.88639846541504        0.00001609839407
Cl          -2.72849112707689        0.34873438460342       -0.00000544320848
Cl          -0.00002515063072        1.95436157300546       -0.00001725680452
Cl           2.72848921949596        0.34880227801093        0.00000008191484
H            0.00004937770174       -3.65739978873139        0.00003255085812
H            2.14998504840326       -2.42007971569594        0.00002340830422
H           -2.14991753109031       -2.42013458733609        0.00001967705080
