41
 xtb: 6.7.1 (edcfbbe)
C            6.06078928107572        1.14800258848602       -0.51291406433939
C            4.77078458669727        0.68067318574731       -1.13349656631889
O            3.78791049477853        0.53694498423111       -0.04698420391181
P            2.20620424768583        0.54049410493997       -0.33921653446733
S            1.45630758459193        1.98507817003333       -1.39878713555088
O            1.60406620551041        0.53665214093077        1.14297921525870
C            2.03003244994520       -0.43520777473550        2.16537928415807
C            1.01046596540956       -0.39007861113098        3.27323045935908
S            1.99239747611463       -1.41011253859299       -1.16932283435311
C            0.23693741605853       -1.39483284214258       -1.68872013626319
S           -0.94499011177603       -1.84505258954024       -0.33884511962520
P           -2.24025484208576       -0.17284006348477       -0.29738128232804
S           -2.67502317978722        0.63103511219341       -2.01703092710227
O           -1.54845849353373        0.77254791483700        0.79904031676827
C           -2.04239217028795        2.14276186259990        1.01955326009181
C           -1.24203333700442        2.71955104752803        2.15789035694169
O           -3.46785378693747       -0.76383170406219        0.56387337053044
C           -4.52334568317205       -1.57329104894694       -0.06110951313158
C           -5.69487679555043       -1.58928815950485        0.88560986071684
H            5.93670762384651        2.12865411845287       -0.04532347170556
H            6.41651473385864        0.43504142972366        0.23609878482056
H            6.81923098836650        1.23102223536971       -1.29739761663363
H            4.88149195582603       -0.29539035386268       -1.61540439557732
H            4.38471402135868        1.40301521125585       -1.85949173651395
H            2.08294440754462       -1.42706932938645        1.70498193086911
H            3.02503118199037       -0.14071337056565        2.51013571326168
H            0.02221752235271       -0.68534848178461        2.90936303593524
H            1.31423184180065       -1.08922628321328        4.05857895131807
H            0.94891458629946        0.61126218722759        3.70844063984003
H            0.15433202806707       -2.15538901019213       -2.46849441288056
H           -0.03068414526203       -0.41904803741085       -2.10875571408442
H           -1.90136043246748        2.70645664945762        0.09269148618192
H           -3.11006797880109        2.09261870167871        1.25668687528208
H           -1.37835368630841        2.13271312645814        3.07058756444360
H           -0.17767986807434        2.75578378686938        1.90901089572598
H           -1.58768014097104        3.74044592100457        2.34781607168081
H           -4.78571503546374       -1.12088566600573       -1.02219678415852
H           -4.12100728883441       -2.57702094896021       -0.23082031036531
H           -6.49059900417378       -2.20354382603039        0.45316804074037
H           -5.41474619826684       -2.01802703825648        1.85177149731009
H           -6.08364603489183       -0.57897097020533        1.04087456498558
