 xtb: 6.7.1 (edcfbbe)
          04092505213D

 41 40  0     0  0            999 V2000
    1.7280   -1.5973   -2.9029 C   0  0  0  0  0  0  0  0  0  0  0  0
    2.2872   -0.2565   -2.4668 C   0  0  0  0  0  0  0  0  0  0  0  0
    2.9981   -0.3693   -1.2205 O   0  0  0  0  0  0  0  0  0  0  0  0
    2.3252   -0.0952    0.1809 P   0  0  0  0  0  0  0  0  0  0  0  0
    1.1483    1.4833    0.2727 S   0  0  0  0  0  0  0  0  0  0  0  0
    3.6799    0.0108    0.9867 O   0  0  0  0  0  0  0  0  0  0  0  0
    3.6696    0.2556    2.4081 C   0  0  0  0  0  0  0  0  0  0  0  0
    5.0874    0.5851    2.8286 C   0  0  0  0  0  0  0  0  0  0  0  0
    1.4882   -1.9282    0.8588 S   0  0  0  0  0  0  0  0  0  0  0  0
   -0.2555   -1.4803    1.0536 C   0  0  0  0  0  0  0  0  0  0  0  0
   -1.0868   -1.1361   -0.5288 S   0  0  0  0  0  0  0  0  0  0  0  0
   -2.1806    0.6262   -0.0282 P   0  0  0  0  0  0  0  0  0  0  0  0
   -2.0633    1.2094    1.8384 S   0  0  0  0  0  0  0  0  0  0  0  0
   -3.6666    0.3090   -0.5141 O   0  0  0  0  0  0  0  0  0  0  0  0
   -4.6456   -0.3189    0.3301 C   0  0  0  0  0  0  0  0  0  0  0  0
   -4.2581   -1.7304    0.7214 C   0  0  0  0  0  0  0  0  0  0  0  0
   -1.7539    1.7346   -1.0651 O   0  0  0  0  0  0  0  0  0  0  0  0
   -2.2257    1.8291   -2.4321 C   0  0  0  0  0  0  0  0  0  0  0  0
   -1.8641    0.6143   -3.2601 C   0  0  0  0  0  0  0  0  0  0  0  0
    2.5207   -2.3399   -2.9076 H   0  0  0  0  0  0  0  0  0  0  0  0
    0.9409   -1.9268   -2.2275 H   0  0  0  0  0  0  0  0  0  0  0  0
    1.3173   -1.5048   -3.9033 H   0  0  0  0  0  0  0  0  0  0  0  0
    1.4975    0.4959   -2.3545 H   0  0  0  0  0  0  0  0  0  0  0  0
    3.0345    0.1096   -3.1734 H   0  0  0  0  0  0  0  0  0  0  0  0
    2.9854    1.0856    2.6179 H   0  0  0  0  0  0  0  0  0  0  0  0
    3.3044   -0.6444    2.9121 H   0  0  0  0  0  0  0  0  0  0  0  0
    5.4313    1.4766    2.3121 H   0  0  0  0  0  0  0  0  0  0  0  0
    5.1114    0.7576    3.8996 H   0  0  0  0  0  0  0  0  0  0  0  0
    5.7458   -0.2416    2.5792 H   0  0  0  0  0  0  0  0  0  0  0  0
   -0.3553   -0.5948    1.6872 H   0  0  0  0  0  0  0  0  0  0  0  0
   -0.7188   -2.3495    1.5139 H   0  0  0  0  0  0  0  0  0  0  0  0
   -4.7791    0.3013    1.2219 H   0  0  0  0  0  0  0  0  0  0  0  0
   -5.5541   -0.3030   -0.2739 H   0  0  0  0  0  0  0  0  0  0  0  0
   -5.0895   -2.1971    1.2398 H   0  0  0  0  0  0  0  0  0  0  0  0
   -4.0064   -2.3155   -0.1594 H   0  0  0  0  0  0  0  0  0  0  0  0
   -3.3992   -1.7030    1.3908 H   0  0  0  0  0  0  0  0  0  0  0  0
   -3.3070    1.9790   -2.4087 H   0  0  0  0  0  0  0  0  0  0  0  0
   -1.7321    2.7305   -2.7994 H   0  0  0  0  0  0  0  0  0  0  0  0
   -2.3570   -0.2722   -2.8643 H   0  0  0  0  0  0  0  0  0  0  0  0
   -2.1892    0.7748   -4.2832 H   0  0  0  0  0  0  0  0  0  0  0  0
   -0.7894    0.4512   -3.2475 H   0  0  0  0  0  0  0  0  0  0  0  0
  1  2  1  0  0  0  0
  2  3  1  0  0  0  0
  3  4  2  0  0  0  0
  4  5  2  0  0  0  0
  4  6  2  0  0  0  0
  6  7  1  0  0  0  0
  7  8  1  0  0  0  0
  4  9  1  0  0  0  0
  9 10  1  0  0  0  0
 10 11  1  0  0  0  0
 11 12  1  0  0  0  0
 12 13  2  0  0  0  0
 12 14  2  0  0  0  0
 14 15  1  0  0  0  0
 15 16  1  0  0  0  0
 12 17  2  0  0  0  0
 17 18  1  0  0  0  0
 18 19  1  0  0  0  0
  1 20  1  0  0  0  0
  1 21  1  0  0  0  0
  1 22  1  0  0  0  0
  2 23  1  0  0  0  0
  2 24  1  0  0  0  0
  7 25  1  0  0  0  0
  7 26  1  0  0  0  0
  8 27  1  0  0  0  0
  8 28  1  0  0  0  0
  8 29  1  0  0  0  0
 10 30  1  0  0  0  0
 10 31  1  0  0  0  0
 15 32  1  0  0  0  0
 15 33  1  0  0  0  0
 16 34  1  0  0  0  0
 16 35  1  0  0  0  0
 16 36  1  0  0  0  0
 18 37  1  0  0  0  0
 18 38  1  0  0  0  0
 19 39  1  0  0  0  0
 19 40  1  0  0  0  0
 19 41  1  0  0  0  0
M  END
