38
 xtb: 6.7.1 (edcfbbe)
C            5.29339445542547       -2.58949530243841       -0.92919860373184
C            4.01542436052507       -3.20636974211851       -1.44621781026191
O            3.13961545488047       -2.17946215794639       -2.02359694558167
C            2.39231741365531       -1.47040167303755       -1.16870936956173
O            2.34991282091905       -1.65944780873763        0.03470285563203
C            1.62680507842110       -0.38839710278062       -1.88623863487793
C            0.60431788213676        0.30727589144117       -0.99239553528315
H            0.18563184994994        1.15503428032538       -1.54977192469479
C            1.27182904141555        0.91054101842071        0.23672918396476
O            2.31131688800574        1.53999814562541        0.13774813183836
O            0.58260976893862        0.74427440564012        1.35735641358237
C            1.07369590967937        1.41973378362706        2.56303512824926
C            0.59761438993162        2.85236287636297        2.59313669222803
S           -0.79982645979290       -0.85559491197734       -0.66839708132595
P           -2.32898053825863        0.49210373281235       -0.09943984677569
S           -2.28432559690737        2.27820116607364       -0.86674596172377
O           -3.54500337181381       -0.48853469472525       -0.50774264522499
C           -4.90475080376482       -0.09655671441712       -0.15000310415320
O           -2.39464957768310        0.60393011951903        1.50873892480337
C           -2.36462580667716       -0.59923484140933        2.33012234889890
H            5.95019008283907       -3.38691324907571       -0.56724761531649
H            5.81456426916136       -2.05141705268500       -1.72607687329636
H            5.10052482489909       -1.90238000360457       -0.10097408674690
H            3.46366141327298       -3.73651926603796       -0.66630075731059
H            4.20372690290440       -3.88424963418975       -2.28013730107289
H            1.15285376078248       -0.79484010000649       -2.78347298547157
H            2.35689309485924        0.35348091690974       -2.22946925859944
H            0.64438721128979        0.83343428742132        3.37774184031425
H            2.16309107201298        1.33820708422337        2.58914987798356
H            1.01170034962956        3.42800269905329        1.76068075841540
H           -0.49472704804864        2.89715611254061        2.55052157512179
H            0.92593284793911        3.31527853659564        3.52894713231792
H           -5.18304646348543        0.81436694567354       -0.68697905585042
H           -4.98888545837169        0.05486514902007        0.92971996344795
H           -5.53850822467359       -0.92586801411062       -0.46352778721290
H           -2.59107703489515       -0.26641670740751        3.34330483786201
H           -1.36901125448304       -1.04867734934429        2.29409564213033
H           -3.11833569488878       -1.31735184843442        1.99465277592133
