 xtb: 6.7.1 (edcfbbe)
          04092507313D

 38 37  0     0  0            999 V2000
    2.3019   -3.3439   -2.6492 C   0  0  0  0  0  0  0  0  0  0  0  0
    3.2579   -3.0460   -1.5049 C   0  0  0  0  0  0  0  0  0  0  0  0
    3.0137   -1.7268   -0.9805 O   0  0  0  0  0  0  0  0  0  0  0  0
    2.1504   -1.5906    0.0031 C   0  0  0  0  0  0  0  0  0  0  0  0
    1.5925   -2.5041    0.5697 O   0  0  0  0  0  0  0  0  0  0  0  0
    1.9063   -0.1265    0.3214 C   0  0  0  0  0  0  0  0  0  0  0  0
    1.0492    0.4702   -0.8012 C   0  0  0  0  0  0  0  0  0  0  0  0
    1.6389    0.5521   -1.7172 H   0  0  0  0  0  0  0  0  0  0  0  0
    0.5051    1.8321   -0.4130 C   0  0  0  0  0  0  0  0  0  0  0  0
   -0.6881    2.0595   -0.3521 O   0  0  0  0  0  0  0  0  0  0  0  0
    1.4529    2.6862   -0.1621 O   0  0  0  0  0  0  0  0  0  0  0  0
    1.0876    3.9958    0.3310 C   0  0  0  0  0  0  0  0  0  0  0  0
    0.9462    3.9680    1.8438 C   0  0  0  0  0  0  0  0  0  0  0  0
   -0.3701   -0.5936   -1.2438 S   0  0  0  0  0  0  0  0  0  0  0  0
   -1.7404   -0.1608    0.3195 P   0  0  0  0  0  0  0  0  0  0  0  0
   -1.1685    0.4676    2.0963 S   0  0  0  0  0  0  0  0  0  0  0  0
   -3.0121    0.5217   -0.3346 O   0  0  0  0  0  0  0  0  0  0  0  0
   -3.4695    1.8508   -0.0753 C   0  0  0  0  0  0  0  0  0  0  0  0
   -2.4313   -1.6063    0.4165 O   0  0  0  0  0  0  0  0  0  0  0  0
   -1.7711   -2.6924    1.0704 C   0  0  0  0  0  0  0  0  0  0  0  0
    2.5076   -4.3339   -3.0420 H   0  0  0  0  0  0  0  0  0  0  0  0
    1.2731   -3.3074   -2.2967 H   0  0  0  0  0  0  0  0  0  0  0  0
    2.4229   -2.6105   -3.4411 H   0  0  0  0  0  0  0  0  0  0  0  0
    4.2932   -3.0234   -1.8453 H   0  0  0  0  0  0  0  0  0  0  0  0
    3.1369   -3.7717   -0.6960 H   0  0  0  0  0  0  0  0  0  0  0  0
    2.8522    0.4116    0.3680 H   0  0  0  0  0  0  0  0  0  0  0  0
    1.3868   -0.0613    1.2793 H   0  0  0  0  0  0  0  0  0  0  0  0
    1.9074    4.6407    0.0163 H   0  0  0  0  0  0  0  0  0  0  0  0
    0.1519    4.3009   -0.1437 H   0  0  0  0  0  0  0  0  0  0  0  0
    0.6711    4.9558    2.1976 H   0  0  0  0  0  0  0  0  0  0  0  0
    0.1734    3.2600    2.1394 H   0  0  0  0  0  0  0  0  0  0  0  0
    1.8829    3.6697    2.3055 H   0  0  0  0  0  0  0  0  0  0  0  0
   -3.1151    2.5117   -0.8639 H   0  0  0  0  0  0  0  0  0  0  0  0
   -3.0999    2.1993    0.8904 H   0  0  0  0  0  0  0  0  0  0  0  0
   -4.5559    1.7974   -0.0702 H   0  0  0  0  0  0  0  0  0  0  0  0
   -0.7742   -2.8579    0.6569 H   0  0  0  0  0  0  0  0  0  0  0  0
   -2.4012   -3.5615    0.9034 H   0  0  0  0  0  0  0  0  0  0  0  0
   -1.6818   -2.4822    2.1374 H   0  0  0  0  0  0  0  0  0  0  0  0
  1  2  1  0  0  0  0
  2  3  1  0  0  0  0
  3  4  1  0  0  0  0
  4  5  2  0  0  0  0
  4  6  1  0  0  0  0
  6  7  1  0  0  0  0
  7  8  1  0  0  0  0
  7  9  1  0  0  0  0
  9 10  2  0  0  0  0
  9 11  4  0  0  0  0
 11 12  1  0  0  0  0
 12 13  1  0  0  0  0
  7 14  1  0  0  0  0
 14 15  1  0  0  0  0
 15 16  2  0  0  0  0
 15 17  2  0  0  0  0
 17 18  1  0  0  0  0
 15 19  1  0  0  0  0
 19 20  1  0  0  0  0
  1 21  1  0  0  0  0
  1 22  1  0  0  0  0
  1 23  1  0  0  0  0
  2 24  1  0  0  0  0
  2 25  1  0  0  0  0
  6 26  1  0  0  0  0
  6 27  1  0  0  0  0
 12 28  1  0  0  0  0
 12 29  1  0  0  0  0
 13 30  1  0  0  0  0
 13 31  1  0  0  0  0
 13 32  1  0  0  0  0
 18 33  1  0  0  0  0
 18 34  1  0  0  0  0
 18 35  1  0  0  0  0
 20 36  1  0  0  0  0
 20 37  1  0  0  0  0
 20 38  1  0  0  0  0
M  END
