 xtb: 6.7.1 (edcfbbe)
          04092505213D

 41 40  0     0  0            999 V2000
    3.1733   -1.0686   -2.4507 C   0  0  0  0  0  0  0  0  0  0  0  0
    1.7257   -0.6988   -2.2147 C   0  0  0  0  0  0  0  0  0  0  0  0
    1.3953   -0.7356   -0.8116 O   0  0  0  0  0  0  0  0  0  0  0  0
    1.9899    0.3121    0.2112 P   0  0  0  0  0  0  0  0  0  0  0  0
    2.5573    2.0683   -0.4354 S   0  0  0  0  0  0  0  0  0  0  0  0
    3.1614   -0.5650    0.8474 O   0  0  0  0  0  0  0  0  0  0  0  0
    4.1026   -0.0019    1.7790 C   0  0  0  0  0  0  0  0  0  0  0  0
    5.3076   -0.9192    1.8374 C   0  0  0  0  0  0  0  0  0  0  0  0
    0.5293    0.3161    1.7477 S   0  0  0  0  0  0  0  0  0  0  0  0
    0.0962   -1.4409    1.7414 C   0  0  0  0  0  0  0  0  0  0  0  0
   -1.0630   -1.9492    0.4159 S   0  0  0  0  0  0  0  0  0  0  0  0
   -1.9981   -0.1331   -0.1059 P   0  0  0  0  0  0  0  0  0  0  0  0
   -1.0571    1.2386   -1.1690 S   0  0  0  0  0  0  0  0  0  0  0  0
   -2.5739    0.3113    1.2954 O   0  0  0  0  0  0  0  0  0  0  0  0
   -2.9270    1.6781    1.5910 C   0  0  0  0  0  0  0  0  0  0  0  0
   -4.1646    2.1050    0.8313 C   0  0  0  0  0  0  0  0  0  0  0  0
   -3.2939   -0.6744   -0.8470 O   0  0  0  0  0  0  0  0  0  0  0  0
   -3.3138   -1.0367   -2.2413 C   0  0  0  0  0  0  0  0  0  0  0  0
   -4.7396   -0.9085   -2.7394 C   0  0  0  0  0  0  0  0  0  0  0  0
    3.3653   -1.1049   -3.5183 H   0  0  0  0  0  0  0  0  0  0  0  0
    3.8202   -0.3171   -1.9989 H   0  0  0  0  0  0  0  0  0  0  0  0
    3.3895   -2.0368   -2.0069 H   0  0  0  0  0  0  0  0  0  0  0  0
    1.0390   -1.4208   -2.6601 H   0  0  0  0  0  0  0  0  0  0  0  0
    1.5041    0.3033   -2.5968 H   0  0  0  0  0  0  0  0  0  0  0  0
    4.3754    1.0012    1.4337 H   0  0  0  0  0  0  0  0  0  0  0  0
    3.6139    0.0811    2.7542 H   0  0  0  0  0  0  0  0  0  0  0  0
    6.0194   -0.5244    2.5548 H   0  0  0  0  0  0  0  0  0  0  0  0
    5.0026   -1.9156    2.1432 H   0  0  0  0  0  0  0  0  0  0  0  0
    5.7794   -0.9789    0.8609 H   0  0  0  0  0  0  0  0  0  0  0  0
   -0.3835   -1.6319    2.6985 H   0  0  0  0  0  0  0  0  0  0  0  0
    0.9956   -2.0407    1.6161 H   0  0  0  0  0  0  0  0  0  0  0  0
   -3.0864    1.6784    2.6699 H   0  0  0  0  0  0  0  0  0  0  0  0
   -2.0746    2.3199    1.3436 H   0  0  0  0  0  0  0  0  0  0  0  0
   -3.9538    2.1120   -0.2376 H   0  0  0  0  0  0  0  0  0  0  0  0
   -4.9798    1.4132    1.0251 H   0  0  0  0  0  0  0  0  0  0  0  0
   -4.4524    3.1047    1.1411 H   0  0  0  0  0  0  0  0  0  0  0  0
   -2.6371   -0.3688   -2.7859 H   0  0  0  0  0  0  0  0  0  0  0  0
   -2.9531   -2.0650   -2.3272 H   0  0  0  0  0  0  0  0  0  0  0  0
   -4.7827   -1.2198   -3.7779 H   0  0  0  0  0  0  0  0  0  0  0  0
   -5.3954   -1.5383   -2.1455 H   0  0  0  0  0  0  0  0  0  0  0  0
   -5.0739    0.1222   -2.6604 H   0  0  0  0  0  0  0  0  0  0  0  0
  1  2  1  0  0  0  0
  2  3  1  0  0  0  0
  3  4  2  0  0  0  0
  4  5  2  0  0  0  0
  4  6  2  0  0  0  0
  6  7  1  0  0  0  0
  7  8  1  0  0  0  0
  4  9  1  0  0  0  0
  9 10  1  0  0  0  0
 10 11  1  0  0  0  0
 11 12  1  0  0  0  0
 12 13  2  0  0  0  0
 12 14  2  0  0  0  0
 14 15  1  0  0  0  0
 15 16  1  0  0  0  0
 12 17  2  0  0  0  0
 17 18  1  0  0  0  0
 18 19  1  0  0  0  0
  1 20  1  0  0  0  0
  1 21  1  0  0  0  0
  1 22  1  0  0  0  0
  2 23  1  0  0  0  0
  2 24  1  0  0  0  0
  7 25  1  0  0  0  0
  7 26  1  0  0  0  0
  8 27  1  0  0  0  0
  8 28  1  0  0  0  0
  8 29  1  0  0  0  0
 10 30  1  0  0  0  0
 10 31  1  0  0  0  0
 15 32  1  0  0  0  0
 15 33  1  0  0  0  0
 16 34  1  0  0  0  0
 16 35  1  0  0  0  0
 16 36  1  0  0  0  0
 18 37  1  0  0  0  0
 18 38  1  0  0  0  0
 19 39  1  0  0  0  0
 19 40  1  0  0  0  0
 19 41  1  0  0  0  0
M  END
