 xtb: 6.7.1 (edcfbbe)
          04092505213D

 41 40  0     0  0            999 V2000
    1.1249    0.1579    2.9195 C   0  0  0  0  0  0  0  0  0  0  0  0
    2.6207    0.0569    2.7020 C   0  0  0  0  0  0  0  0  0  0  0  0
    3.0148    0.5671    1.4166 O   0  0  0  0  0  0  0  0  0  0  0  0
    2.6648   -0.1824    0.0582 P   0  0  0  0  0  0  0  0  0  0  0  0
    2.7757   -2.1425    0.1426 S   0  0  0  0  0  0  0  0  0  0  0  0
    3.6414    0.5281   -0.9651 O   0  0  0  0  0  0  0  0  0  0  0  0
    4.9868    0.0613   -1.1992 C   0  0  0  0  0  0  0  0  0  0  0  0
    5.8743    0.2346    0.0157 C   0  0  0  0  0  0  0  0  0  0  0  0
    0.8576    0.6765   -0.6463 S   0  0  0  0  0  0  0  0  0  0  0  0
   -0.1029   -0.8404   -0.9371 C   0  0  0  0  0  0  0  0  0  0  0  0
   -1.4066   -1.0931    0.2873 S   0  0  0  0  0  0  0  0  0  0  0  0
   -2.7724    0.3110   -0.5586 P   0  0  0  0  0  0  0  0  0  0  0  0
   -2.9165    0.2843   -2.5082 S   0  0  0  0  0  0  0  0  0  0  0  0
   -2.3082    1.7190   -0.0285 O   0  0  0  0  0  0  0  0  0  0  0  0
   -2.1752    2.0320    1.3825 C   0  0  0  0  0  0  0  0  0  0  0  0
   -1.1882    3.1736    1.5100 C   0  0  0  0  0  0  0  0  0  0  0  0
   -4.1172    0.0754    0.2561 O   0  0  0  0  0  0  0  0  0  0  0  0
   -5.1084   -0.8950   -0.1298 C   0  0  0  0  0  0  0  0  0  0  0  0
   -4.5863   -2.3150   -0.0559 C   0  0  0  0  0  0  0  0  0  0  0  0
    0.6012   -0.5072    2.2326 H   0  0  0  0  0  0  0  0  0  0  0  0
    0.8885   -0.1375    3.9366 H   0  0  0  0  0  0  0  0  0  0  0  0
    0.7900    1.1783    2.7529 H   0  0  0  0  0  0  0  0  0  0  0  0
    2.9508   -0.9842    2.7781 H   0  0  0  0  0  0  0  0  0  0  0  0
    3.1732    0.6755    3.4105 H   0  0  0  0  0  0  0  0  0  0  0  0
    4.9394   -0.9912   -1.4965 H   0  0  0  0  0  0  0  0  0  0  0  0
    5.3276    0.6680   -2.0393 H   0  0  0  0  0  0  0  0  0  0  0  0
    5.5455   -0.4276    0.8152 H   0  0  0  0  0  0  0  0  0  0  0  0
    6.8971   -0.0146   -0.2496 H   0  0  0  0  0  0  0  0  0  0  0  0
    5.8309    1.2617    0.3684 H   0  0  0  0  0  0  0  0  0  0  0  0
    0.5638   -1.7034   -0.8793 H   0  0  0  0  0  0  0  0  0  0  0  0
   -0.5644   -0.7587   -1.9218 H   0  0  0  0  0  0  0  0  0  0  0  0
   -3.1638    2.3087    1.7529 H   0  0  0  0  0  0  0  0  0  0  0  0
   -1.8300    1.1370    1.9086 H   0  0  0  0  0  0  0  0  0  0  0  0
   -1.5500    4.0402    0.9646 H   0  0  0  0  0  0  0  0  0  0  0  0
   -1.0722    3.4306    2.5582 H   0  0  0  0  0  0  0  0  0  0  0  0
   -0.2261    2.8842    1.0936 H   0  0  0  0  0  0  0  0  0  0  0  0
   -5.9216   -0.7270    0.5778 H   0  0  0  0  0  0  0  0  0  0  0  0
   -5.4423   -0.6603   -1.1449 H   0  0  0  0  0  0  0  0  0  0  0  0
   -5.4051   -3.0064   -0.2273 H   0  0  0  0  0  0  0  0  0  0  0  0
   -3.8272   -2.4736   -0.8205 H   0  0  0  0  0  0  0  0  0  0  0  0
   -4.1475   -2.5082    0.9198 H   0  0  0  0  0  0  0  0  0  0  0  0
  1  2  1  0  0  0  0
  2  3  1  0  0  0  0
  3  4  2  0  0  0  0
  4  5  2  0  0  0  0
  4  6  2  0  0  0  0
  6  7  1  0  0  0  0
  7  8  1  0  0  0  0
  4  9  1  0  0  0  0
  9 10  1  0  0  0  0
 10 11  1  0  0  0  0
 11 12  1  0  0  0  0
 12 13  2  0  0  0  0
 12 14  2  0  0  0  0
 14 15  1  0  0  0  0
 15 16  1  0  0  0  0
 12 17  2  0  0  0  0
 17 18  1  0  0  0  0
 18 19  1  0  0  0  0
  1 20  1  0  0  0  0
  1 21  1  0  0  0  0
  1 22  1  0  0  0  0
  2 23  1  0  0  0  0
  2 24  1  0  0  0  0
  7 25  1  0  0  0  0
  7 26  1  0  0  0  0
  8 27  1  0  0  0  0
  8 28  1  0  0  0  0
  8 29  1  0  0  0  0
 10 30  1  0  0  0  0
 10 31  1  0  0  0  0
 15 32  1  0  0  0  0
 15 33  1  0  0  0  0
 16 34  1  0  0  0  0
 16 35  1  0  0  0  0
 16 36  1  0  0  0  0
 18 37  1  0  0  0  0
 18 38  1  0  0  0  0
 19 39  1  0  0  0  0
 19 40  1  0  0  0  0
 19 41  1  0  0  0  0
M  END
