38
 xtb: 6.7.1 (edcfbbe)
C            3.66855640125753       -4.30878176856929       -1.08559331282839
C            2.20974821544325       -3.94669155076750       -0.93633018771813
O            2.05797340084525       -2.67185917239737       -0.22656651537415
C            2.17310199404097       -1.55281042134019       -0.95499418042129
O            2.37861947193893       -1.53189886650158       -2.15661566189417
C            2.00931274480648       -0.31766456365374       -0.10788259831588
C            0.97147445604269        0.61545755436237       -0.72559171877940
H            1.30529614647186        0.92122688514224       -1.72694572305238
C            0.82608876930413        1.90388380311874        0.07014993021982
O            1.68726447430483        2.29734566241555        0.83324855925890
O           -0.29685232174525        2.55624603043790       -0.22246081214457
C           -0.53922891423612        3.82231971482495        0.47891712823035
C            0.16397418428202        4.96416260938152       -0.21387481070661
S           -0.62362036860856       -0.26464363577997       -1.09886421253545
P           -1.70013668716445       -0.21549452459544        0.73128160567109
S           -0.66735141508089       -0.09798863981563        2.36991720723881
O           -2.78403487093467        0.96344574023710        0.65356809100397
C           -3.60051437400107        1.18565444674198       -0.53440261766381
O           -2.63869330399852       -1.50921823370388        0.51247922161340
C           -2.07482659048771       -2.84263963710315        0.67860933622647
H            4.15612180943832       -4.36489697362589       -0.10816906044486
H            3.74222012938042       -5.29111330624773       -1.56275823799823
H            4.19935575416755       -3.58417376033056       -1.70872092730325
H            1.68141732052922       -4.65994479373944       -0.30140841893521
H            1.69912529547625       -3.87113375419580       -1.89951142285767
H            2.97609872863393        0.19844617136159       -0.08764847909881
H            1.73489252873935       -0.58335834052038        0.91310685208223
H           -1.62495860592601        3.93039970080964        0.43856120415148
H           -0.22341806055683        3.70501240708957        1.51865825297188
H            1.24986931898038        4.84260374829365       -0.18472048757141
H           -0.15988871704070        5.04449236180400       -1.25538789778568
H           -0.09154543349925        5.89748897516513        0.29766835638326
H           -4.27536149951868        2.00005150355057       -0.27123974647293
H           -4.17205114785677        0.28709041304564       -0.77917786711902
H           -2.96595485448300        1.48088540654868       -1.37376321244979
H           -1.17998850744031       -2.96343977966221        0.06008376001738
H           -2.85203400814949       -3.53227801760959        0.35016901804167
H           -1.83519049802186       -3.01185661137481        1.73109850012489
