 xtb: 6.7.1 (edcfbbe)
          04092505203D

 41 40  0     0  0            999 V2000
    2.2802   -2.1780    2.5703 C   0  0  0  0  0  0  0  0  0  0  0  0
    1.0254   -1.9766    1.7484 C   0  0  0  0  0  0  0  0  0  0  0  0
    0.9795   -0.6573    1.1632 O   0  0  0  0  0  0  0  0  0  0  0  0
    1.9989   -0.2056    0.0412 P   0  0  0  0  0  0  0  0  0  0  0  0
    2.7151   -1.6038   -1.1362 S   0  0  0  0  0  0  0  0  0  0  0  0
    3.0781    0.5802    0.8986 O   0  0  0  0  0  0  0  0  0  0  0  0
    4.2797    1.1111    0.3043 C   0  0  0  0  0  0  0  0  0  0  0  0
    5.2741    1.3716    1.4177 C   0  0  0  0  0  0  0  0  0  0  0  0
    0.9229    1.3553   -0.9015 S   0  0  0  0  0  0  0  0  0  0  0  0
    0.1131    0.3247   -2.1559 C   0  0  0  0  0  0  0  0  0  0  0  0
   -0.9362   -0.9590   -1.4420 S   0  0  0  0  0  0  0  0  0  0  0  0
   -2.3775    0.3404   -0.5447 P   0  0  0  0  0  0  0  0  0  0  0  0
   -2.7090    2.0272   -1.4732 S   0  0  0  0  0  0  0  0  0  0  0  0
   -1.9417    0.4915    0.9807 O   0  0  0  0  0  0  0  0  0  0  0  0
   -1.4130    1.6866    1.5765 C   0  0  0  0  0  0  0  0  0  0  0  0
   -2.3339    2.1308    2.6957 C   0  0  0  0  0  0  0  0  0  0  0  0
   -3.6692   -0.5581   -0.4760 O   0  0  0  0  0  0  0  0  0  0  0  0
   -3.7202   -1.9863   -0.2459 C   0  0  0  0  0  0  0  0  0  0  0  0
   -3.1234   -2.3764    1.0886 C   0  0  0  0  0  0  0  0  0  0  0  0
    3.1538   -2.1446    1.9200 H   0  0  0  0  0  0  0  0  0  0  0  0
    2.3694   -1.3961    3.3197 H   0  0  0  0  0  0  0  0  0  0  0  0
    2.2403   -3.1469    3.0580 H   0  0  0  0  0  0  0  0  0  0  0  0
    0.1261   -2.0205    2.3648 H   0  0  0  0  0  0  0  0  0  0  0  0
    0.9635   -2.7150    0.9425 H   0  0  0  0  0  0  0  0  0  0  0  0
    4.6643    0.3815   -0.4164 H   0  0  0  0  0  0  0  0  0  0  0  0
    4.0206    2.0326   -0.2241 H   0  0  0  0  0  0  0  0  0  0  0  0
    5.5238    0.4431    1.9231 H   0  0  0  0  0  0  0  0  0  0  0  0
    6.1758    1.8026    0.9953 H   0  0  0  0  0  0  0  0  0  0  0  0
    4.8483    2.0627    2.1392 H   0  0  0  0  0  0  0  0  0  0  0  0
    0.8678   -0.1890   -2.7505 H   0  0  0  0  0  0  0  0  0  0  0  0
   -0.4898    0.9983   -2.7645 H   0  0  0  0  0  0  0  0  0  0  0  0
   -0.4170    1.4341    1.9489 H   0  0  0  0  0  0  0  0  0  0  0  0
   -1.3270    2.4651    0.8106 H   0  0  0  0  0  0  0  0  0  0  0  0
   -2.4425    1.3380    3.4301 H   0  0  0  0  0  0  0  0  0  0  0  0
   -1.9138    3.0101    3.1732 H   0  0  0  0  0  0  0  0  0  0  0  0
   -3.3133    2.3771    2.2922 H   0  0  0  0  0  0  0  0  0  0  0  0
   -4.7873   -2.2084   -0.2950 H   0  0  0  0  0  0  0  0  0  0  0  0
   -3.1988   -2.4846   -1.0676 H   0  0  0  0  0  0  0  0  0  0  0  0
   -2.0642   -2.1278    1.1048 H   0  0  0  0  0  0  0  0  0  0  0  0
   -3.6232   -1.8458    1.8945 H   0  0  0  0  0  0  0  0  0  0  0  0
   -3.2395   -3.4461    1.2324 H   0  0  0  0  0  0  0  0  0  0  0  0
  1  2  1  0  0  0  0
  2  3  1  0  0  0  0
  3  4  2  0  0  0  0
  4  5  2  0  0  0  0
  4  6  2  0  0  0  0
  6  7  1  0  0  0  0
  7  8  1  0  0  0  0
  4  9  1  0  0  0  0
  9 10  1  0  0  0  0
 10 11  1  0  0  0  0
 11 12  1  0  0  0  0
 12 13  2  0  0  0  0
 12 14  2  0  0  0  0
 14 15  1  0  0  0  0
 15 16  1  0  0  0  0
 12 17  2  0  0  0  0
 17 18  1  0  0  0  0
 18 19  1  0  0  0  0
  1 20  1  0  0  0  0
  1 21  1  0  0  0  0
  1 22  1  0  0  0  0
  2 23  1  0  0  0  0
  2 24  1  0  0  0  0
  7 25  1  0  0  0  0
  7 26  1  0  0  0  0
  8 27  1  0  0  0  0
  8 28  1  0  0  0  0
  8 29  1  0  0  0  0
 10 30  1  0  0  0  0
 10 31  1  0  0  0  0
 15 32  1  0  0  0  0
 15 33  1  0  0  0  0
 16 34  1  0  0  0  0
 16 35  1  0  0  0  0
 16 36  1  0  0  0  0
 18 37  1  0  0  0  0
 18 38  1  0  0  0  0
 19 39  1  0  0  0  0
 19 40  1  0  0  0  0
 19 41  1  0  0  0  0
M  END
