 xtb: 6.7.1 (edcfbbe)
          04092509473D

 38 37  0     0  0            999 V2000
    4.1297   -3.7325   -2.2558 C   0  0  0  0  0  0  0  0  0  0  0  0
    3.3710   -3.9008   -0.9492 C   0  0  0  0  0  0  0  0  0  0  0  0
    3.2385   -2.6407   -0.2634 O   0  0  0  0  0  0  0  0  0  0  0  0
    2.2539   -1.8365   -0.6143 C   0  0  0  0  0  0  0  0  0  0  0  0
    1.4159   -2.0944   -1.4497 O   0  0  0  0  0  0  0  0  0  0  0  0
    2.3047   -0.5446    0.1745 C   0  0  0  0  0  0  0  0  0  0  0  0
    0.9928    0.2148    0.0588 C   0  0  0  0  0  0  0  0  0  0  0  0
    0.6437    0.1771   -0.9850 H   0  0  0  0  0  0  0  0  0  0  0  0
    1.1489    1.6828    0.4068 C   0  0  0  0  0  0  0  0  0  0  0  0
    2.1424    2.3110    0.1209 O   0  0  0  0  0  0  0  0  0  0  0  0
    0.0903    2.1747    1.0133 O   0  0  0  0  0  0  0  0  0  0  0  0
    0.0801    3.5884    1.3075 C   0  0  0  0  0  0  0  0  0  0  0  0
   -0.5274    4.3620    0.1505 C   0  0  0  0  0  0  0  0  0  0  0  0
   -0.2975   -0.5944    1.0593 S   0  0  0  0  0  0  0  0  0  0  0  0
   -2.0037    0.1709    0.0522 P   0  0  0  0  0  0  0  0  0  0  0  0
   -1.7427    0.8203   -1.7744 S   0  0  0  0  0  0  0  0  0  0  0  0
   -3.0592   -1.0263    0.2103 O   0  0  0  0  0  0  0  0  0  0  0  0
   -2.9408   -2.2481   -0.5247 C   0  0  0  0  0  0  0  0  0  0  0  0
   -2.6718    1.2605    0.9776 O   0  0  0  0  0  0  0  0  0  0  0  0
   -2.9577    1.0132    2.3681 C   0  0  0  0  0  0  0  0  0  0  0  0
    4.2699   -4.7038   -2.7182 H   0  0  0  0  0  0  0  0  0  0  0  0
    3.5666   -3.0966   -2.9355 H   0  0  0  0  0  0  0  0  0  0  0  0
    5.0997   -3.2796   -2.0697 H   0  0  0  0  0  0  0  0  0  0  0  0
    3.9173   -4.5327   -0.2492 H   0  0  0  0  0  0  0  0  0  0  0  0
    2.3715   -4.3058   -1.1312 H   0  0  0  0  0  0  0  0  0  0  0  0
    3.1051    0.0798   -0.2328 H   0  0  0  0  0  0  0  0  0  0  0  0
    2.5454   -0.7705    1.2135 H   0  0  0  0  0  0  0  0  0  0  0  0
   -0.5196    3.6818    2.2126 H   0  0  0  0  0  0  0  0  0  0  0  0
    1.1100    3.9064    1.4933 H   0  0  0  0  0  0  0  0  0  0  0  0
    0.0793    4.2340   -0.7438 H   0  0  0  0  0  0  0  0  0  0  0  0
   -1.5301    3.9955   -0.0571 H   0  0  0  0  0  0  0  0  0  0  0  0
   -0.5710    5.4165    0.4008 H   0  0  0  0  0  0  0  0  0  0  0  0
   -2.0247   -2.7707   -0.2483 H   0  0  0  0  0  0  0  0  0  0  0  0
   -2.9360   -2.0440   -1.5962 H   0  0  0  0  0  0  0  0  0  0  0  0
   -3.8135   -2.8374   -0.2530 H   0  0  0  0  0  0  0  0  0  0  0  0
   -3.3301    1.9583    2.7542 H   0  0  0  0  0  0  0  0  0  0  0  0
   -2.0453    0.7140    2.8840 H   0  0  0  0  0  0  0  0  0  0  0  0
   -3.7116    0.2339    2.4598 H   0  0  0  0  0  0  0  0  0  0  0  0
  1  2  1  0  0  0  0
  2  3  1  0  0  0  0
  3  4  1  0  0  0  0
  4  5  2  0  0  0  0
  4  6  1  0  0  0  0
  6  7  1  0  0  0  0
  7  8  1  0  0  0  0
  7  9  1  0  0  0  0
  9 10  2  0  0  0  0
  9 11  1  0  0  0  0
 11 12  1  0  0  0  0
 12 13  1  0  0  0  0
  7 14  1  0  0  0  0
 14 15  1  0  0  0  0
 15 16  2  0  0  0  0
 15 17  1  0  0  0  0
 17 18  1  0  0  0  0
 15 19  2  0  0  0  0
 19 20  1  0  0  0  0
  1 21  1  0  0  0  0
  1 22  1  0  0  0  0
  1 23  1  0  0  0  0
  2 24  1  0  0  0  0
  2 25  1  0  0  0  0
  6 26  1  0  0  0  0
  6 27  1  0  0  0  0
 12 28  1  0  0  0  0
 12 29  1  0  0  0  0
 13 30  1  0  0  0  0
 13 31  1  0  0  0  0
 13 32  1  0  0  0  0
 18 33  1  0  0  0  0
 18 34  1  0  0  0  0
 18 35  1  0  0  0  0
 20 36  1  0  0  0  0
 20 37  1  0  0  0  0
 20 38  1  0  0  0  0
M  END
