 xtb: 6.7.1 (edcfbbe)
          04092507313D

 38 37  0     0  0            999 V2000
    4.0263   -2.6154    0.7796 C   0  0  0  0  0  0  0  0  0  0  0  0
    2.7923   -1.7574    0.9986 C   0  0  0  0  0  0  0  0  0  0  0  0
    2.5885   -0.9132   -0.1510 O   0  0  0  0  0  0  0  0  0  0  0  0
    1.4938   -1.0236   -0.8618 C   0  0  0  0  0  0  0  0  0  0  0  0
    0.5700   -1.7804   -0.6165 O   0  0  0  0  0  0  0  0  0  0  0  0
    1.4735   -0.0681   -2.0353 C   0  0  0  0  0  0  0  0  0  0  0  0
    0.2852    0.8904   -1.9002 C   0  0  0  0  0  0  0  0  0  0  0  0
    0.2077    1.5048   -2.8015 H   0  0  0  0  0  0  0  0  0  0  0  0
    0.4177    1.8053   -0.6944 C   0  0  0  0  0  0  0  0  0  0  0  0
   -0.4860    1.9724    0.1005 O   0  0  0  0  0  0  0  0  0  0  0  0
    1.5932    2.3683   -0.6369 O   0  0  0  0  0  0  0  0  0  0  0  0
    1.9121    3.1983    0.5020 C   0  0  0  0  0  0  0  0  0  0  0  0
    2.5053    2.3539    1.6174 C   0  0  0  0  0  0  0  0  0  0  0  0
   -1.3176    0.0285   -1.7962 S   0  0  0  0  0  0  0  0  0  0  0  0
   -1.5531   -0.3706    0.2737 P   0  0  0  0  0  0  0  0  0  0  0  0
   -0.3762   -0.3056    1.8416 S   0  0  0  0  0  0  0  0  0  0  0  0
   -2.8761    0.5475    0.4219 O   0  0  0  0  0  0  0  0  0  0  0  0
   -3.4076    0.8919    1.7009 C   0  0  0  0  0  0  0  0  0  0  0  0
   -2.1486   -1.8606    0.2794 O   0  0  0  0  0  0  0  0  0  0  0  0
   -3.0444   -2.3442   -0.7298 C   0  0  0  0  0  0  0  0  0  0  0  0
    4.8852   -1.9834    0.5750 H   0  0  0  0  0  0  0  0  0  0  0  0
    4.2144   -3.1986    1.6747 H   0  0  0  0  0  0  0  0  0  0  0  0
    3.8743   -3.2905   -0.0585 H   0  0  0  0  0  0  0  0  0  0  0  0
    2.9172   -1.0832    1.8486 H   0  0  0  0  0  0  0  0  0  0  0  0
    1.8947   -2.3617    1.1557 H   0  0  0  0  0  0  0  0  0  0  0  0
    1.3459   -0.6497   -2.9488 H   0  0  0  0  0  0  0  0  0  0  0  0
    2.4041    0.4971   -2.0634 H   0  0  0  0  0  0  0  0  0  0  0  0
    2.6341    3.9174    0.1153 H   0  0  0  0  0  0  0  0  0  0  0  0
    1.0022    3.7035    0.8354 H   0  0  0  0  0  0  0  0  0  0  0  0
    1.7715    1.6318    1.9747 H   0  0  0  0  0  0  0  0  0  0  0  0
    3.3787    1.8180    1.2562 H   0  0  0  0  0  0  0  0  0  0  0  0
    2.7920    2.9975    2.4420 H   0  0  0  0  0  0  0  0  0  0  0  0
   -2.6654    1.4527    2.2706 H   0  0  0  0  0  0  0  0  0  0  0  0
   -3.6882   -0.0054    2.2554 H   0  0  0  0  0  0  0  0  0  0  0  0
   -4.2789    1.5083    1.4953 H   0  0  0  0  0  0  0  0  0  0  0  0
   -2.4665   -2.6926   -1.5851 H   0  0  0  0  0  0  0  0  0  0  0  0
   -3.7346   -1.5582   -1.0399 H   0  0  0  0  0  0  0  0  0  0  0  0
   -3.5829   -3.1697   -0.2701 H   0  0  0  0  0  0  0  0  0  0  0  0
  1  2  1  0  0  0  0
  2  3  1  0  0  0  0
  3  4  4  0  0  0  0
  4  5  2  0  0  0  0
  4  6  1  0  0  0  0
  6  7  1  0  0  0  0
  7  8  1  0  0  0  0
  7  9  1  0  0  0  0
  9 10  2  0  0  0  0
  9 11  4  0  0  0  0
 11 12  1  0  0  0  0
 12 13  1  0  0  0  0
  7 14  1  0  0  0  0
 14 15  1  0  0  0  0
 15 16  2  0  0  0  0
 15 17  1  0  0  0  0
 17 18  1  0  0  0  0
 15 19  1  0  0  0  0
 19 20  1  0  0  0  0
  1 21  1  0  0  0  0
  1 22  1  0  0  0  0
  1 23  1  0  0  0  0
  2 24  1  0  0  0  0
  2 25  1  0  0  0  0
  6 26  1  0  0  0  0
  6 27  1  0  0  0  0
 12 28  1  0  0  0  0
 12 29  1  0  0  0  0
 13 30  1  0  0  0  0
 13 31  1  0  0  0  0
 13 32  1  0  0  0  0
 18 33  1  0  0  0  0
 18 34  1  0  0  0  0
 18 35  1  0  0  0  0
 20 36  1  0  0  0  0
 20 37  1  0  0  0  0
 20 38  1  0  0  0  0
M  END
