 xtb: 6.7.1 (edcfbbe)
          04092507313D

 38 37  0     0  0            999 V2000
    2.1892   -3.8109    0.6837 C   0  0  0  0  0  0  0  0  0  0  0  0
    2.8079   -2.4264    0.6518 C   0  0  0  0  0  0  0  0  0  0  0  0
    2.3631   -1.7527   -0.5414 O   0  0  0  0  0  0  0  0  0  0  0  0
    2.0784   -0.4746   -0.4976 C   0  0  0  0  0  0  0  0  0  0  0  0
    2.1606    0.2326    0.4883 O   0  0  0  0  0  0  0  0  0  0  0  0
    1.6562    0.0620   -1.8526 C   0  0  0  0  0  0  0  0  0  0  0  0
    0.3918    0.9184   -1.7332 C   0  0  0  0  0  0  0  0  0  0  0  0
    0.3194    1.5939   -2.5883 H   0  0  0  0  0  0  0  0  0  0  0  0
    0.3934    1.7350   -0.4558 C   0  0  0  0  0  0  0  0  0  0  0  0
   -0.4073    1.5389    0.4444 O   0  0  0  0  0  0  0  0  0  0  0  0
    1.2706    2.6907   -0.4777 O   0  0  0  0  0  0  0  0  0  0  0  0
    1.4369    3.4874    0.7157 C   0  0  0  0  0  0  0  0  0  0  0  0
    2.4438    4.5769    0.4091 C   0  0  0  0  0  0  0  0  0  0  0  0
   -1.1402   -0.0731   -1.7861 S   0  0  0  0  0  0  0  0  0  0  0  0
   -1.7175   -0.4923    0.2124 P   0  0  0  0  0  0  0  0  0  0  0  0
   -0.5154   -1.2310    1.5837 S   0  0  0  0  0  0  0  0  0  0  0  0
   -2.8424    0.5403    0.6601 O   0  0  0  0  0  0  0  0  0  0  0  0
   -2.7951    1.3461    1.8373 C   0  0  0  0  0  0  0  0  0  0  0  0
   -2.7979   -1.6143   -0.2092 O   0  0  0  0  0  0  0  0  0  0  0  0
   -2.4044   -2.9192   -0.6339 C   0  0  0  0  0  0  0  0  0  0  0  0
    2.5983   -4.3655    1.5211 H   0  0  0  0  0  0  0  0  0  0  0  0
    1.1126   -3.7295    0.8088 H   0  0  0  0  0  0  0  0  0  0  0  0
    2.4048   -4.3361   -0.2416 H   0  0  0  0  0  0  0  0  0  0  0  0
    3.8987   -2.4771    0.6006 H   0  0  0  0  0  0  0  0  0  0  0  0
    2.5065   -1.8338    1.5206 H   0  0  0  0  0  0  0  0  0  0  0  0
    1.4929   -0.7616   -2.5455 H   0  0  0  0  0  0  0  0  0  0  0  0
    2.4719    0.6915   -2.2149 H   0  0  0  0  0  0  0  0  0  0  0  0
    0.4616    3.8950    0.9982 H   0  0  0  0  0  0  0  0  0  0  0  0
    1.7811    2.8173    1.5096 H   0  0  0  0  0  0  0  0  0  0  0  0
    2.0850    5.1994   -0.4049 H   0  0  0  0  0  0  0  0  0  0  0  0
    2.5853    5.1889    1.2935 H   0  0  0  0  0  0  0  0  0  0  0  0
    3.3933    4.1345    0.1249 H   0  0  0  0  0  0  0  0  0  0  0  0
   -1.9905    1.0159    2.4968 H   0  0  0  0  0  0  0  0  0  0  0  0
   -3.7587    1.2308    2.3300 H   0  0  0  0  0  0  0  0  0  0  0  0
   -2.6294    2.3823    1.5476 H   0  0  0  0  0  0  0  0  0  0  0  0
   -1.6616   -3.3268    0.0555 H   0  0  0  0  0  0  0  0  0  0  0  0
   -1.9955   -2.8821   -1.6439 H   0  0  0  0  0  0  0  0  0  0  0  0
   -3.3101   -3.5200   -0.6107 H   0  0  0  0  0  0  0  0  0  0  0  0
  1  2  1  0  0  0  0
  2  3  1  0  0  0  0
  3  4  4  0  0  0  0
  4  5  2  0  0  0  0
  4  6  1  0  0  0  0
  6  7  1  0  0  0  0
  7  8  1  0  0  0  0
  7  9  1  0  0  0  0
  9 10  2  0  0  0  0
  9 11  4  0  0  0  0
 11 12  1  0  0  0  0
 12 13  1  0  0  0  0
  7 14  1  0  0  0  0
 14 15  1  0  0  0  0
 15 16  2  0  0  0  0
 15 17  1  0  0  0  0
 17 18  1  0  0  0  0
 15 19  1  0  0  0  0
 19 20  1  0  0  0  0
  1 21  1  0  0  0  0
  1 22  1  0  0  0  0
  1 23  1  0  0  0  0
  2 24  1  0  0  0  0
  2 25  1  0  0  0  0
  6 26  1  0  0  0  0
  6 27  1  0  0  0  0
 12 28  1  0  0  0  0
 12 29  1  0  0  0  0
 13 30  1  0  0  0  0
 13 31  1  0  0  0  0
 13 32  1  0  0  0  0
 18 33  1  0  0  0  0
 18 34  1  0  0  0  0
 18 35  1  0  0  0  0
 20 36  1  0  0  0  0
 20 37  1  0  0  0  0
 20 38  1  0  0  0  0
M  END
