 xtb: 6.7.1 (edcfbbe)
          04032519403D

 11 10  0     0  0            999 V2000
   -1.4411   -0.9880    0.0001 C   0  0  0  0  0  0  0  0  0  0  0  0
   -0.0003    0.0886   -0.0001 S   0  0  0  0  0  0  0  0  0  0  0  0
   -0.0029    0.8777    1.2254 O   0  0  0  0  0  0  0  0  0  0  0  0
   -0.0023    0.8774   -1.2259 O   0  0  0  0  0  0  0  0  0  0  0  0
    1.4475   -0.9909    0.0007 C   0  0  0  0  0  0  0  0  0  0  0  0
   -2.3214   -0.3584   -0.0013 H   0  0  0  0  0  0  0  0  0  0  0  0
   -1.4001   -1.5896   -0.8974 H   0  0  0  0  0  0  0  0  0  0  0  0
   -1.4010   -1.5872    0.8993 H   0  0  0  0  0  0  0  0  0  0  0  0
    1.1044   -2.0158   -0.0314 H   0  0  0  0  0  0  0  0  0  0  0  0
    2.0348   -0.7510   -0.8753 H   0  0  0  0  0  0  0  0  0  0  0  0
    2.0012   -0.7945    0.9089 H   0  0  0  0  0  0  0  0  0  0  0  0
  1  2  1  0  0  0  0
  2  3  2  0  0  0  0
  2  4  2  0  0  0  0
  2  5  1  0  0  0  0
  1  6  1  0  0  0  0
  1  7  1  0  0  0  0
  1  8  1  0  0  0  0
  5  9  1  0  0  0  0
  5 10  1  0  0  0  0
  5 11  1  0  0  0  0
M  END
