 xtb: 6.7.1 (edcfbbe)
          04092505213D

 41 40  0     0  0            999 V2000
    4.9714   -1.6856   -0.4547 C   0  0  0  0  0  0  0  0  0  0  0  0
    3.6556   -1.8482    0.2783 C   0  0  0  0  0  0  0  0  0  0  0  0
    2.5393   -1.5262   -0.5908 O   0  0  0  0  0  0  0  0  0  0  0  0
    1.8488   -0.1114   -0.6628 P   0  0  0  0  0  0  0  0  0  0  0  0
    0.5856   -0.0350   -2.1560 S   0  0  0  0  0  0  0  0  0  0  0  0
    3.0680    0.8993   -0.8121 O   0  0  0  0  0  0  0  0  0  0  0  0
    2.9003    2.2558   -1.2574 C   0  0  0  0  0  0  0  0  0  0  0  0
    2.1789    3.1073   -0.2328 C   0  0  0  0  0  0  0  0  0  0  0  0
    1.2509    0.2632    1.3549 S   0  0  0  0  0  0  0  0  0  0  0  0
    0.3173   -1.2589    1.7125 C   0  0  0  0  0  0  0  0  0  0  0  0
   -0.8420   -1.7701    0.4137 S   0  0  0  0  0  0  0  0  0  0  0  0
   -2.1642   -0.1031    0.3766 P   0  0  0  0  0  0  0  0  0  0  0  0
   -1.5524    1.7435    0.1071 S   0  0  0  0  0  0  0  0  0  0  0  0
   -2.9588   -0.3119    1.7285 O   0  0  0  0  0  0  0  0  0  0  0  0
   -3.2189    0.7365    2.6838 C   0  0  0  0  0  0  0  0  0  0  0  0
   -2.1221    0.8096    3.7280 C   0  0  0  0  0  0  0  0  0  0  0  0
   -3.2589   -0.6361   -0.6396 O   0  0  0  0  0  0  0  0  0  0  0  0
   -3.0522   -0.8984   -2.0397 C   0  0  0  0  0  0  0  0  0  0  0  0
   -3.1475    0.3665   -2.8695 C   0  0  0  0  0  0  0  0  0  0  0  0
    5.7797   -2.0142    0.1911 H   0  0  0  0  0  0  0  0  0  0  0  0
    4.9692   -2.2848   -1.3612 H   0  0  0  0  0  0  0  0  0  0  0  0
    5.1273   -0.6444   -0.7239 H   0  0  0  0  0  0  0  0  0  0  0  0
    3.6180   -1.2062    1.1626 H   0  0  0  0  0  0  0  0  0  0  0  0
    3.4868   -2.8896    0.5593 H   0  0  0  0  0  0  0  0  0  0  0  0
    3.9210    2.6039   -1.4227 H   0  0  0  0  0  0  0  0  0  0  0  0
    2.3521    2.2449   -2.2049 H   0  0  0  0  0  0  0  0  0  0  0  0
    2.1946    4.1443   -0.5521 H   0  0  0  0  0  0  0  0  0  0  0  0
    1.1395    2.7908   -0.1408 H   0  0  0  0  0  0  0  0  0  0  0  0
    2.6591    3.0206    0.7387 H   0  0  0  0  0  0  0  0  0  0  0  0
   -0.2213   -1.0711    2.6391 H   0  0  0  0  0  0  0  0  0  0  0  0
    1.0042   -2.0949    1.8266 H   0  0  0  0  0  0  0  0  0  0  0  0
   -3.3084    1.6892    2.1539 H   0  0  0  0  0  0  0  0  0  0  0  0
   -4.1784    0.4647    3.1254 H   0  0  0  0  0  0  0  0  0  0  0  0
   -1.9976   -0.1551    4.2131 H   0  0  0  0  0  0  0  0  0  0  0  0
   -1.1838    1.1098    3.2626 H   0  0  0  0  0  0  0  0  0  0  0  0
   -2.3923    1.5500    4.4739 H   0  0  0  0  0  0  0  0  0  0  0  0
   -2.0797   -1.3789   -2.1831 H   0  0  0  0  0  0  0  0  0  0  0  0
   -3.8483   -1.6014   -2.2925 H   0  0  0  0  0  0  0  0  0  0  0  0
   -4.0745    0.8899   -2.6510 H   0  0  0  0  0  0  0  0  0  0  0  0
   -2.3084    1.0243   -2.6517 H   0  0  0  0  0  0  0  0  0  0  0  0
   -3.1161    0.1040   -3.9218 H   0  0  0  0  0  0  0  0  0  0  0  0
  1  2  1  0  0  0  0
  2  3  1  0  0  0  0
  3  4  2  0  0  0  0
  4  5  2  0  0  0  0
  4  6  2  0  0  0  0
  6  7  1  0  0  0  0
  7  8  1  0  0  0  0
  4  9  1  0  0  0  0
  9 10  1  0  0  0  0
 10 11  1  0  0  0  0
 11 12  1  0  0  0  0
 12 13  2  0  0  0  0
 12 14  2  0  0  0  0
 14 15  1  0  0  0  0
 15 16  1  0  0  0  0
 12 17  2  0  0  0  0
 17 18  1  0  0  0  0
 18 19  1  0  0  0  0
  1 20  1  0  0  0  0
  1 21  1  0  0  0  0
  1 22  1  0  0  0  0
  2 23  1  0  0  0  0
  2 24  1  0  0  0  0
  7 25  1  0  0  0  0
  7 26  1  0  0  0  0
  8 27  1  0  0  0  0
  8 28  1  0  0  0  0
  8 29  1  0  0  0  0
 10 30  1  0  0  0  0
 10 31  1  0  0  0  0
 15 32  1  0  0  0  0
 15 33  1  0  0  0  0
 16 34  1  0  0  0  0
 16 35  1  0  0  0  0
 16 36  1  0  0  0  0
 18 37  1  0  0  0  0
 18 38  1  0  0  0  0
 19 39  1  0  0  0  0
 19 40  1  0  0  0  0
 19 41  1  0  0  0  0
M  END
