  29
 
 C          4.6245627267        0.9715255857       -0.2251574397
 C          3.3619490706        0.2098000399        0.0575442850
 C          2.2390292708        0.8351955653        0.3911787411
 C          0.9098077551        0.2127221931        0.6905838238
 C         -0.0137263991        0.2800476859       -0.5413443155
 C         -1.3576840242       -0.3166806441       -0.2412076230
 C         -2.4313512659        0.4462690937       -0.0719468615
 C         -3.7994182151       -0.0630001582        0.2684750404
 O         -4.6965912533        1.0295767984        0.3215710724
 C         -1.4144715946       -1.8096228514       -0.0936109563
 C          3.5132037237       -1.2788629588       -0.0574993072
 H          5.4329073925        0.6054904333        0.4061348000
 H          4.9249970346        0.8294118039       -1.2629012043
 H          4.4928604604        2.0349304393       -0.0451291187
 H          2.2421561081        1.9178573807        0.4270208878
 H          1.0239356103       -0.8242447716        1.0042398144
 H          0.4328090649        0.7585209494        1.5081678768
 H         -0.1260882106        1.3228106974       -0.8422573534
 H          0.4587648652       -0.2624331253       -1.3636179683
 H         -2.3776429958        1.5201824597       -0.1737971883
 H         -3.7732693153       -0.5810215279        1.2398632052
 H         -4.1292576112       -0.7897925109       -0.4904322560
 H         -5.5793550070        0.7092893046        0.5476345421
 H         -1.5727864951       -2.0833660665        0.9492078527
 H         -0.4914394369       -2.2681162287       -0.4365507220
 H         -2.2425925066       -2.2194714577       -0.6692755656
 H          4.0848396936       -1.6599541221        0.7888875110
 H          2.5560740563       -1.7883930263       -0.0852970911
 H          4.0624610831       -1.5239187428       -0.9647356269
          29
        -34.62022855
 C          2.1824258784        2.1509297424        0.3070465736
 C          1.8194460878        0.7792637095       -0.1844823981
 C          1.9137902929       -0.2812099896        0.6089763195
 C          1.5389098778       -1.6969163853        0.3000024410
 C          0.1386284647       -2.0199930482        0.8644257823
 C         -0.9185353685       -1.2477661514        0.1277948739
 C         -1.3301014307       -0.0639778191        0.5673782856
 C         -2.3428560136        0.8098906733       -0.1141740126
 O         -2.3716612634        2.1295799747        0.3901256815
 C         -1.4463182120       -1.8741480037       -1.1285075903
 C          1.3566856195        0.7585000698       -1.6097358422
 H          2.5434483354        2.1226988205        1.3317868509
 H          2.9539651198        2.5895607481       -0.3244102837
 H          1.3086102580        2.8008034091        0.2619389794
 H          2.2494451091       -0.1280778735        1.6281931464
 H          1.5479112504       -1.8851569914       -0.7731543903
 H          2.2637137411       -2.3677768498        0.7665106334
 H         -0.0473502389       -3.0907606065        0.7653919446
 H          0.1242053833       -1.7628790429        1.9248260046
 H         -0.9154989670        0.3429952541        1.4791420750
 H         -3.3452393951        0.3573964167       -0.0416858980
 H         -2.1083739577        0.9163650596       -1.1785014477
 H         -2.5735273895        2.0982000202        1.3353557085
 H         -0.7640742594       -2.6374242217       -1.4937702472
 H         -1.5944923419       -1.1298772552       -1.9079011894
 H         -2.4099355903       -2.3448366841       -0.9341326768
 H          0.4819465896        1.3995919792       -1.7144172945
 H          2.1368065469        1.1544056612       -2.2594965289
 H          1.0933966814       -0.2383191425       -1.9449451451
