 xtb: 6.7.1 (edcfbbe)
          04032519423D

 20 20  0     0  0            999 V2000
    0.7341    1.5487   -0.7775 C   0  0  0  0  0  0  0  0  0  0  0  0
    1.5232    0.2886   -0.3828 C   0  0  0  0  0  0  0  0  0  0  0  0
    1.9844   -0.1480   -1.2814 H   0  0  0  0  0  0  0  0  0  0  0  0
    0.5630   -0.7592    0.2029 C   0  0  0  0  0  0  0  0  0  0  0  0
    0.3933   -0.5316    1.2681 H   0  0  0  0  0  0  0  0  0  0  0  0
   -0.7825   -0.6692   -0.5367 C   0  0  0  0  0  0  0  0  0  0  0  0
   -0.6058   -0.7522   -1.6142 H   0  0  0  0  0  0  0  0  0  0  0  0
   -1.4198    0.6915   -0.1893 C   0  0  0  0  0  0  0  0  0  0  0  0
   -2.1387    0.9855   -0.9808 H   0  0  0  0  0  0  0  0  0  0  0  0
   -0.4584    1.7111   -0.0372 O   0  0  0  0  0  0  0  0  0  0  0  0
   -2.0795    0.5362    1.0230 O   0  0  0  0  0  0  0  0  0  0  0  0
   -1.6226   -1.7358   -0.1926 O   0  0  0  0  0  0  0  0  0  0  0  0
    1.1393   -2.0347    0.0674 O   0  0  0  0  0  0  0  0  0  0  0  0
    2.5230    0.6597    0.5343 O   0  0  0  0  0  0  0  0  0  0  0  0
    0.5060    1.5366   -1.8493 H   0  0  0  0  0  0  0  0  0  0  0  0
    1.3352    2.4261   -0.5375 H   0  0  0  0  0  0  0  0  0  0  0  0
   -2.2851    1.4085    1.3912 H   0  0  0  0  0  0  0  0  0  0  0  0
   -2.0822   -1.5082    0.6334 H   0  0  0  0  0  0  0  0  0  0  0  0
    0.4240   -2.6912    0.0829 H   0  0  0  0  0  0  0  0  0  0  0  0
    3.0128   -0.1305    0.8049 H   0  0  0  0  0  0  0  0  0  0  0  0
  1  2  1  0  0  0  0
  2  3  1  0  0  0  0
  2  4  1  0  0  0  0
  4  5  1  0  0  0  0
  4  6  1  0  0  0  0
  6  7  1  0  0  0  0
  6  8  1  0  0  0  0
  8  9  1  0  0  0  0
  1 10  1  0  0  0  0
  8 10  1  0  0  0  0
  8 11  1  0  0  0  0
  6 12  1  0  0  0  0
  4 13  1  0  0  0  0
  2 14  1  0  0  0  0
  1 15  1  0  0  0  0
  1 16  1  0  0  0  0
 11 17  1  0  0  0  0
 12 18  1  0  0  0  0
 13 19  1  0  0  0  0
 14 20  1  0  0  0  0
M  END
