  20
 
 C         -2.9085981521       -0.3688571967       -0.0122383738
 C         -2.6697771877        1.0144101607       -0.0066430967
 C         -1.3912384834        1.4967819089        0.0038541897
 C         -0.2847382543        0.6190866078        0.0106645051
 C          1.0391125108        1.0871230368        0.0211900584
 C          2.1099758925        0.2154893508        0.0297600551
 C          1.8534655578       -1.1775970428        0.0204356237
 C          0.5777121558       -1.6556629214        0.0068739521
 C         -0.5299788892       -0.7807028570        0.0028018352
 C         -1.8587517513       -1.2457673496       -0.0086939927
 N          3.4036889112        0.6653207038        0.1142949654
 H         -3.9256209136       -0.7327143446       -0.0193253338
 H         -3.5083862016        1.6957912453       -0.0104841926
 H         -1.2071890141        2.5620852928        0.0086455143
 H          1.2143869415        2.1540640950        0.0262844316
 H          2.6924629340       -1.8585891392        0.0251829572
 H          0.3954899642       -2.7210960942       -0.0024785940
 H         -2.0344871847       -2.3126740036       -0.0136353475
 H          3.5637089519        1.6293312697       -0.1236388808
 H          4.1275406480        0.0212799632       -0.1558977116
          20
        -28.91827656
 C         -2.9099743184       -0.3700248979        0.0056040497
 C         -2.6710428001        1.0132143133        0.0018559561
 C         -1.3925530616        1.4956397217       -0.0029646791
 C         -0.2861563423        0.6177151379       -0.0033761473
 C          1.0378632489        1.0857953505       -0.0112748933
 C          2.1083066598        0.2137444729       -0.0107359954
 C          1.8517985845       -1.1793123590       -0.0074611449
 C          0.5760249088       -1.6572400218       -0.0028124848
 C         -0.5315426572       -0.7819539632       -0.0003778557
 C         -1.8603621330       -1.2471382646        0.0039165956
 N          3.4032010537        0.6637357215        0.0544533913
 H         -3.9271052061       -0.7335464188        0.0098295565
 H         -3.5098579326        1.6943453217        0.0031003526
 H         -1.2086031228        2.5608726101       -0.0054614782
 H          1.2131213687        2.1525930578       -0.0144557274
 H          2.6910260132       -1.8599577040       -0.0077964010
 H          0.3936652912       -2.7226510500       -0.0028422403
 H         -2.0362700107       -2.3139399847        0.0065128763
 H          4.1228575017        0.0192243392       -0.2254923653
 H          3.5597996362        1.6265980346       -0.1909064642
