  18
 
 C          3.2225339990        0.2340793619        0.0022305494
 C          1.9125112552       -0.5456448931       -0.0002389060
 C          0.7004501499        0.3834920383        0.0002551470
 C         -0.6123607539       -0.3936899107       -0.0000301093
 C         -1.8240297690        0.5334980974        0.0000469174
 O         -2.9989247213       -0.2548526271       -0.0003007775
 H          4.0710124839       -0.4454070523       -0.0000227731
 H          3.2881855069        0.8701573784       -0.8775436845
 H          3.2883572772        0.8644327967        0.8860782274
 H          1.8713708867       -1.1906052149        0.8799114580
 H          1.8730033854       -1.1875079823       -0.8827445134
 H          0.7391593484        1.0266471547        0.8823928284
 H          0.7390741027        1.0274361362       -0.8813031044
 H         -0.6703841647       -1.0362051771        0.8803527974
 H         -0.6702112448       -1.0358331326       -0.8807010777
 H         -1.7972851888        1.1752742609       -0.8912785227
 H         -1.7975253762        1.1748344733        0.8917086163
 H         -3.7744953672        0.3215932117       -0.0002263646
          18
        -20.89404001
 C          3.2231731890        0.2381495645        0.0011757290
 C          1.9167902385       -0.5468737218        0.0088615577
 C          0.7003014529        0.3766884767       -0.0067100045
 C         -0.6099414591       -0.4060005436        0.0025520562
 C         -1.8227914935        0.5239294126       -0.0275348466
 O         -3.0522021023       -0.1661022328        0.0631135845
 H          4.0746499539       -0.4375055954        0.0121887870
 H          3.2886318025        0.8599975660       -0.8886731887
 H          3.2845980529        0.8835062415        0.8743645361
 H          1.8776934718       -1.1779074116        0.8992626626
 H          1.8830211244       -1.2027649570       -0.8637486930
 H          0.7342954752        1.0340619124        0.8647397721
 H          0.7370856970        1.0077252457       -0.8977603593
 H         -0.6659752473       -1.0250117304        0.9004787703
 H         -0.6419682139       -1.0693857518       -0.8653965283
 H         -1.8012407196        1.1395699983       -0.9376709609
 H         -1.8050506528        1.1925303370        0.8367596434
 H         -3.1221686340       -0.7833722817       -0.6783436039
