 xtb: 6.7.1 (edcfbbe)
          04092507313D

 38 37  0     0  0            999 V2000
    5.5360   -1.8941   -1.4510 C   0  0  0  0  0  0  0  0  0  0  0  0
    4.6930   -0.7952   -0.8244 C   0  0  0  0  0  0  0  0  0  0  0  0
    3.3952   -1.2876   -0.4372 O   0  0  0  0  0  0  0  0  0  0  0  0
    2.4584   -1.3699   -1.3630 C   0  0  0  0  0  0  0  0  0  0  0  0
    2.6061   -1.0764   -2.5265 O   0  0  0  0  0  0  0  0  0  0  0  0
    1.1491   -1.8712   -0.7746 C   0  0  0  0  0  0  0  0  0  0  0  0
    0.1566   -0.7034   -0.7562 C   0  0  0  0  0  0  0  0  0  0  0  0
   -0.0216   -0.3499   -1.7756 H   0  0  0  0  0  0  0  0  0  0  0  0
    0.7826    0.4262    0.0401 C   0  0  0  0  0  0  0  0  0  0  0  0
    1.6738    1.1052   -0.4168 O   0  0  0  0  0  0  0  0  0  0  0  0
    0.3156    0.5101    1.2672 O   0  0  0  0  0  0  0  0  0  0  0  0
    0.9263    1.4613    2.1621 C   0  0  0  0  0  0  0  0  0  0  0  0
    2.0839    0.8136    2.9026 C   0  0  0  0  0  0  0  0  0  0  0  0
   -1.4163   -1.2663   -0.0318 S   0  0  0  0  0  0  0  0  0  0  0  0
   -2.3311    0.6293    0.2498 P   0  0  0  0  0  0  0  0  0  0  0  0
   -1.6220    2.1028   -0.8334 S   0  0  0  0  0  0  0  0  0  0  0  0
   -3.8756    0.3002   -0.0068 O   0  0  0  0  0  0  0  0  0  0  0  0
   -4.3641   -0.0233   -1.3135 C   0  0  0  0  0  0  0  0  0  0  0  0
   -2.3661    0.9540    1.7929 O   0  0  0  0  0  0  0  0  0  0  0  0
   -2.8844    0.0121    2.7576 C   0  0  0  0  0  0  0  0  0  0  0  0
    5.0812   -2.2290   -2.3802 H   0  0  0  0  0  0  0  0  0  0  0  0
    6.5264   -1.5056   -1.6636 H   0  0  0  0  0  0  0  0  0  0  0  0
    5.6184   -2.7367   -0.7700 H   0  0  0  0  0  0  0  0  0  0  0  0
    4.5494    0.0367   -1.5200 H   0  0  0  0  0  0  0  0  0  0  0  0
    5.1344   -0.4360    0.1054 H   0  0  0  0  0  0  0  0  0  0  0  0
    1.3194   -2.2404    0.2363 H   0  0  0  0  0  0  0  0  0  0  0  0
    0.7517   -2.6665   -1.4054 H   0  0  0  0  0  0  0  0  0  0  0  0
    1.2599    2.3202    1.5727 H   0  0  0  0  0  0  0  0  0  0  0  0
    0.1237    1.7597    2.8370 H   0  0  0  0  0  0  0  0  0  0  0  0
    2.8465    0.4977    2.1936 H   0  0  0  0  0  0  0  0  0  0  0  0
    2.5154    1.5347    3.5885 H   0  0  0  0  0  0  0  0  0  0  0  0
    1.7366   -0.0515    3.4601 H   0  0  0  0  0  0  0  0  0  0  0  0
   -4.0040    0.7057   -2.0410 H   0  0  0  0  0  0  0  0  0  0  0  0
   -5.4477    0.0190   -1.2393 H   0  0  0  0  0  0  0  0  0  0  0  0
   -4.0361   -1.0241   -1.5938 H   0  0  0  0  0  0  0  0  0  0  0  0
   -2.3577   -0.9377    2.6666 H   0  0  0  0  0  0  0  0  0  0  0  0
   -3.9503   -0.1332    2.5955 H   0  0  0  0  0  0  0  0  0  0  0  0
   -2.6991    0.4673    3.7269 H   0  0  0  0  0  0  0  0  0  0  0  0
  1  2  1  0  0  0  0
  2  3  1  0  0  0  0
  3  4  1  0  0  0  0
  4  5  2  0  0  0  0
  4  6  1  0  0  0  0
  6  7  1  0  0  0  0
  7  8  1  0  0  0  0
  7  9  1  0  0  0  0
  9 10  2  0  0  0  0
  9 11  1  0  0  0  0
 11 12  1  0  0  0  0
 12 13  1  0  0  0  0
  7 14  1  0  0  0  0
 14 15  1  0  0  0  0
 15 16  2  0  0  0  0
 15 17  1  0  0  0  0
 17 18  1  0  0  0  0
 15 19  2  0  0  0  0
 19 20  1  0  0  0  0
  1 21  1  0  0  0  0
  1 22  1  0  0  0  0
  1 23  1  0  0  0  0
  2 24  1  0  0  0  0
  2 25  1  0  0  0  0
  6 26  1  0  0  0  0
  6 27  1  0  0  0  0
 12 28  1  0  0  0  0
 12 29  1  0  0  0  0
 13 30  1  0  0  0  0
 13 31  1  0  0  0  0
 13 32  1  0  0  0  0
 18 33  1  0  0  0  0
 18 34  1  0  0  0  0
 18 35  1  0  0  0  0
 20 36  1  0  0  0  0
 20 37  1  0  0  0  0
 20 38  1  0  0  0  0
M  END
