 xtb: 6.7.1 (edcfbbe)
          04092507313D

 38 37  0     0  0            999 V2000
    3.6046   -2.3219    1.5897 C   0  0  0  0  0  0  0  0  0  0  0  0
    2.8598   -2.8775    0.3870 C   0  0  0  0  0  0  0  0  0  0  0  0
    2.7779   -1.8909   -0.6621 O   0  0  0  0  0  0  0  0  0  0  0  0
    1.7927   -1.0308   -0.6418 C   0  0  0  0  0  0  0  0  0  0  0  0
    0.9174   -1.0184    0.2105 O   0  0  0  0  0  0  0  0  0  0  0  0
    1.8334   -0.0608   -1.7923 C   0  0  0  0  0  0  0  0  0  0  0  0
    0.7158    0.9601   -1.6678 C   0  0  0  0  0  0  0  0  0  0  0  0
    0.6974    1.6294   -2.5316 H   0  0  0  0  0  0  0  0  0  0  0  0
    0.8115    1.8028   -0.4057 C   0  0  0  0  0  0  0  0  0  0  0  0
    1.7097    1.6963    0.3999 O   0  0  0  0  0  0  0  0  0  0  0  0
   -0.1781    2.6641   -0.3376 O   0  0  0  0  0  0  0  0  0  0  0  0
   -0.2316    3.5731    0.7776 C   0  0  0  0  0  0  0  0  0  0  0  0
    0.5259    4.8525    0.4611 C   0  0  0  0  0  0  0  0  0  0  0  0
   -0.9463    0.1849   -1.7516 S   0  0  0  0  0  0  0  0  0  0  0  0
   -1.4573   -0.5573    0.1834 P   0  0  0  0  0  0  0  0  0  0  0  0
   -1.4883   -2.4917    0.5513 S   0  0  0  0  0  0  0  0  0  0  0  0
   -0.9688    0.4514    1.3136 O   0  0  0  0  0  0  0  0  0  0  0  0
   -0.2337    0.0541    2.4712 C   0  0  0  0  0  0  0  0  0  0  0  0
   -2.9769   -0.0116    0.1993 O   0  0  0  0  0  0  0  0  0  0  0  0
   -3.9691   -0.5594   -0.6668 C   0  0  0  0  0  0  0  0  0  0  0  0
    3.0670   -1.4706    2.0026 H   0  0  0  0  0  0  0  0  0  0  0  0
    3.6811   -3.0914    2.3506 H   0  0  0  0  0  0  0  0  0  0  0  0
    4.6010   -2.0019    1.2982 H   0  0  0  0  0  0  0  0  0  0  0  0
    1.8459   -3.1853    0.6602 H   0  0  0  0  0  0  0  0  0  0  0  0
    3.3978   -3.7094   -0.0669 H   0  0  0  0  0  0  0  0  0  0  0  0
    1.7345   -0.6169   -2.7259 H   0  0  0  0  0  0  0  0  0  0  0  0
    2.8058    0.4352   -1.7844 H   0  0  0  0  0  0  0  0  0  0  0  0
   -1.2956    3.7601    0.9247 H   0  0  0  0  0  0  0  0  0  0  0  0
    0.1873    3.0745    1.6557 H   0  0  0  0  0  0  0  0  0  0  0  0
    0.4087    5.5483    1.2852 H   0  0  0  0  0  0  0  0  0  0  0  0
    1.5837    4.6386    0.3267 H   0  0  0  0  0  0  0  0  0  0  0  0
    0.1349    5.3026   -0.4470 H   0  0  0  0  0  0  0  0  0  0  0  0
   -0.7225    0.5202    3.3243 H   0  0  0  0  0  0  0  0  0  0  0  0
    0.7935    0.4070    2.3698 H   0  0  0  0  0  0  0  0  0  0  0  0
   -0.2418   -1.0322    2.5752 H   0  0  0  0  0  0  0  0  0  0  0  0
   -4.9150   -0.1423   -0.3308 H   0  0  0  0  0  0  0  0  0  0  0  0
   -3.9805   -1.6482   -0.5816 H   0  0  0  0  0  0  0  0  0  0  0  0
   -3.7679   -0.2726   -1.7003 H   0  0  0  0  0  0  0  0  0  0  0  0
  1  2  1  0  0  0  0
  2  3  1  0  0  0  0
  3  4  4  0  0  0  0
  4  5  2  0  0  0  0
  4  6  1  0  0  0  0
  6  7  1  0  0  0  0
  7  8  1  0  0  0  0
  7  9  1  0  0  0  0
  9 10  2  0  0  0  0
  9 11  1  0  0  0  0
 11 12  1  0  0  0  0
 12 13  1  0  0  0  0
  7 14  1  0  0  0  0
 14 15  1  0  0  0  0
 15 16  2  0  0  0  0
 15 17  1  0  0  0  0
 17 18  1  0  0  0  0
 15 19  1  0  0  0  0
 19 20  1  0  0  0  0
  1 21  1  0  0  0  0
  1 22  1  0  0  0  0
  1 23  1  0  0  0  0
  2 24  1  0  0  0  0
  2 25  1  0  0  0  0
  6 26  1  0  0  0  0
  6 27  1  0  0  0  0
 12 28  1  0  0  0  0
 12 29  1  0  0  0  0
 13 30  1  0  0  0  0
 13 31  1  0  0  0  0
 13 32  1  0  0  0  0
 18 33  1  0  0  0  0
 18 34  1  0  0  0  0
 18 35  1  0  0  0  0
 20 36  1  0  0  0  0
 20 37  1  0  0  0  0
 20 38  1  0  0  0  0
M  END
