 xtb: 6.7.1 (edcfbbe)
          04092507313D

 38 37  0     0  0            999 V2000
    3.3322   -1.7186    1.5701 C   0  0  0  0  0  0  0  0  0  0  0  0
    3.0636   -2.2632    0.1778 C   0  0  0  0  0  0  0  0  0  0  0  0
    2.7263   -1.1961   -0.7297 O   0  0  0  0  0  0  0  0  0  0  0  0
    1.4870   -1.0608   -1.1451 C   0  0  0  0  0  0  0  0  0  0  0  0
    0.5582   -1.7676   -0.8056 O   0  0  0  0  0  0  0  0  0  0  0  0
    1.3551    0.0677   -2.1473 C   0  0  0  0  0  0  0  0  0  0  0  0
    0.1984    1.0091   -1.8096 C   0  0  0  0  0  0  0  0  0  0  0  0
    0.0585    1.7132   -2.6358 H   0  0  0  0  0  0  0  0  0  0  0  0
    0.4285    1.8170   -0.5455 C   0  0  0  0  0  0  0  0  0  0  0  0
   -0.4446    1.9850    0.2843 O   0  0  0  0  0  0  0  0  0  0  0  0
    1.6326    2.3137   -0.4916 O   0  0  0  0  0  0  0  0  0  0  0  0
    2.0213    3.0779    0.6715 C   0  0  0  0  0  0  0  0  0  0  0  0
    2.6613    2.1694    1.7068 C   0  0  0  0  0  0  0  0  0  0  0  0
   -1.4134    0.1664   -1.6603 S   0  0  0  0  0  0  0  0  0  0  0  0
   -1.6227   -0.2757    0.4206 P   0  0  0  0  0  0  0  0  0  0  0  0
   -0.2370   -0.5026    1.7876 S   0  0  0  0  0  0  0  0  0  0  0  0
   -2.7407    0.7099    0.9645 O   0  0  0  0  0  0  0  0  0  0  0  0
   -3.9771    0.9680    0.2801 C   0  0  0  0  0  0  0  0  0  0  0  0
   -2.5407   -1.5931    0.2830 O   0  0  0  0  0  0  0  0  0  0  0  0
   -2.0426   -2.9046    0.0314 C   0  0  0  0  0  0  0  0  0  0  0  0
    3.6374   -2.5336    2.2176 H   0  0  0  0  0  0  0  0  0  0  0  0
    4.1203   -0.9725    1.5369 H   0  0  0  0  0  0  0  0  0  0  0  0
    2.4290   -1.2674    1.9773 H   0  0  0  0  0  0  0  0  0  0  0  0
    2.2394   -2.9814    0.1935 H   0  0  0  0  0  0  0  0  0  0  0  0
    3.9590   -2.7212   -0.2465 H   0  0  0  0  0  0  0  0  0  0  0  0
    1.1568   -0.3847   -3.1208 H   0  0  0  0  0  0  0  0  0  0  0  0
    2.2890    0.6279   -2.1798 H   0  0  0  0  0  0  0  0  0  0  0  0
    2.7309    3.8107    0.2870 H   0  0  0  0  0  0  0  0  0  0  0  0
    1.1359    3.5724    1.0789 H   0  0  0  0  0  0  0  0  0  0  0  0
    1.9427    1.4275    2.0527 H   0  0  0  0  0  0  0  0  0  0  0  0
    3.5161    1.6557    1.2764 H   0  0  0  0  0  0  0  0  0  0  0  0
    2.9864    2.7627    2.5546 H   0  0  0  0  0  0  0  0  0  0  0  0
   -3.7786    1.3761   -0.7113 H   0  0  0  0  0  0  0  0  0  0  0  0
   -4.4929    1.6975    0.8993 H   0  0  0  0  0  0  0  0  0  0  0  0
   -4.5557    0.0491    0.1976 H   0  0  0  0  0  0  0  0  0  0  0  0
   -2.8716   -3.5762    0.2413 H   0  0  0  0  0  0  0  0  0  0  0  0
   -1.1983   -3.1163    0.6883 H   0  0  0  0  0  0  0  0  0  0  0  0
   -1.7218   -2.9909   -1.0057 H   0  0  0  0  0  0  0  0  0  0  0  0
  1  2  1  0  0  0  0
  2  3  1  0  0  0  0
  3  4  4  0  0  0  0
  4  5  2  0  0  0  0
  4  6  1  0  0  0  0
  6  7  1  0  0  0  0
  7  8  1  0  0  0  0
  7  9  1  0  0  0  0
  9 10  2  0  0  0  0
  9 11  4  0  0  0  0
 11 12  1  0  0  0  0
 12 13  1  0  0  0  0
  7 14  1  0  0  0  0
 14 15  1  0  0  0  0
 15 16  2  0  0  0  0
 15 17  2  0  0  0  0
 17 18  1  0  0  0  0
 15 19  1  0  0  0  0
 19 20  1  0  0  0  0
  1 21  1  0  0  0  0
  1 22  1  0  0  0  0
  1 23  1  0  0  0  0
  2 24  1  0  0  0  0
  2 25  1  0  0  0  0
  6 26  1  0  0  0  0
  6 27  1  0  0  0  0
 12 28  1  0  0  0  0
 12 29  1  0  0  0  0
 13 30  1  0  0  0  0
 13 31  1  0  0  0  0
 13 32  1  0  0  0  0
 18 33  1  0  0  0  0
 18 34  1  0  0  0  0
 18 35  1  0  0  0  0
 20 36  1  0  0  0  0
 20 37  1  0  0  0  0
 20 38  1  0  0  0  0
M  END
