 xtb: 6.7.1 (edcfbbe)
          04092505203D

 41 40  0     0  0            999 V2000
    3.1924    2.3483   -1.3911 C   0  0  0  0  0  0  0  0  0  0  0  0
    3.8911    1.8154   -0.1565 C   0  0  0  0  0  0  0  0  0  0  0  0
    3.6134    0.4216    0.0464 O   0  0  0  0  0  0  0  0  0  0  0  0
    2.1691   -0.0966    0.4700 P   0  0  0  0  0  0  0  0  0  0  0  0
    1.3109    1.0465    1.8173 S   0  0  0  0  0  0  0  0  0  0  0  0
    2.4541   -1.5939    0.8930 O   0  0  0  0  0  0  0  0  0  0  0  0
    2.6982   -1.9610    2.2677 C   0  0  0  0  0  0  0  0  0  0  0  0
    4.0429   -1.4581    2.7478 C   0  0  0  0  0  0  0  0  0  0  0  0
    1.2419   -0.4655   -1.4083 S   0  0  0  0  0  0  0  0  0  0  0  0
    0.2085   -1.8950   -0.9825 C   0  0  0  0  0  0  0  0  0  0  0  0
   -0.8967   -1.5937    0.4239 S   0  0  0  0  0  0  0  0  0  0  0  0
   -2.0495   -0.0858   -0.5013 P   0  0  0  0  0  0  0  0  0  0  0  0
   -2.4253   -0.3403   -2.4109 S   0  0  0  0  0  0  0  0  0  0  0  0
   -1.2445    1.2100   -0.0990 O   0  0  0  0  0  0  0  0  0  0  0  0
   -1.3358    2.4449   -0.8383 C   0  0  0  0  0  0  0  0  0  0  0  0
   -2.7148    3.0588   -0.7322 C   0  0  0  0  0  0  0  0  0  0  0  0
   -3.3284    0.0152    0.4315 O   0  0  0  0  0  0  0  0  0  0  0  0
   -4.4250   -0.9161    0.3243 C   0  0  0  0  0  0  0  0  0  0  0  0
   -5.6597   -0.2541    0.9020 C   0  0  0  0  0  0  0  0  0  0  0  0
    2.1118    2.2824   -1.2574 H   0  0  0  0  0  0  0  0  0  0  0  0
    3.4672    3.3864   -1.5474 H   0  0  0  0  0  0  0  0  0  0  0  0
    3.4671    1.7630   -2.2649 H   0  0  0  0  0  0  0  0  0  0  0  0
    3.5710    2.3656    0.7350 H   0  0  0  0  0  0  0  0  0  0  0  0
    4.9764    1.8602   -0.2533 H   0  0  0  0  0  0  0  0  0  0  0  0
    1.8886   -1.5568    2.8839 H   0  0  0  0  0  0  0  0  0  0  0  0
    2.6493   -3.0506    2.2604 H   0  0  0  0  0  0  0  0  0  0  0  0
    4.2339   -1.8381    3.7465 H   0  0  0  0  0  0  0  0  0  0  0  0
    4.8296   -1.7896    2.0754 H   0  0  0  0  0  0  0  0  0  0  0  0
    4.0401   -0.3693    2.7772 H   0  0  0  0  0  0  0  0  0  0  0  0
    0.8375   -2.7405   -0.7180 H   0  0  0  0  0  0  0  0  0  0  0  0
   -0.3868   -2.1022   -1.8727 H   0  0  0  0  0  0  0  0  0  0  0  0
   -0.5728    3.0755   -0.3782 H   0  0  0  0  0  0  0  0  0  0  0  0
   -1.0757    2.2414   -1.8825 H   0  0  0  0  0  0  0  0  0  0  0  0
   -2.9888    3.1823    0.3124 H   0  0  0  0  0  0  0  0  0  0  0  0
   -2.7185    4.0249   -1.2270 H   0  0  0  0  0  0  0  0  0  0  0  0
   -3.4438    2.4086   -1.2152 H   0  0  0  0  0  0  0  0  0  0  0  0
   -4.5633   -1.1722   -0.7317 H   0  0  0  0  0  0  0  0  0  0  0  0
   -4.1582   -1.8186    0.8805 H   0  0  0  0  0  0  0  0  0  0  0  0
   -6.4871   -0.9552    0.8686 H   0  0  0  0  0  0  0  0  0  0  0  0
   -5.4747    0.0375    1.9317 H   0  0  0  0  0  0  0  0  0  0  0  0
   -5.9161    0.6308    0.3263 H   0  0  0  0  0  0  0  0  0  0  0  0
  1  2  1  0  0  0  0
  2  3  1  0  0  0  0
  3  4  2  0  0  0  0
  4  5  2  0  0  0  0
  4  6  2  0  0  0  0
  6  7  1  0  0  0  0
  7  8  1  0  0  0  0
  4  9  1  0  0  0  0
  9 10  1  0  0  0  0
 10 11  1  0  0  0  0
 11 12  1  0  0  0  0
 12 13  2  0  0  0  0
 12 14  2  0  0  0  0
 14 15  1  0  0  0  0
 15 16  1  0  0  0  0
 12 17  2  0  0  0  0
 17 18  1  0  0  0  0
 18 19  1  0  0  0  0
  1 20  1  0  0  0  0
  1 21  1  0  0  0  0
  1 22  1  0  0  0  0
  2 23  1  0  0  0  0
  2 24  1  0  0  0  0
  7 25  1  0  0  0  0
  7 26  1  0  0  0  0
  8 27  1  0  0  0  0
  8 28  1  0  0  0  0
  8 29  1  0  0  0  0
 10 30  1  0  0  0  0
 10 31  1  0  0  0  0
 15 32  1  0  0  0  0
 15 33  1  0  0  0  0
 16 34  1  0  0  0  0
 16 35  1  0  0  0  0
 16 36  1  0  0  0  0
 18 37  1  0  0  0  0
 18 38  1  0  0  0  0
 19 39  1  0  0  0  0
 19 40  1  0  0  0  0
 19 41  1  0  0  0  0
M  END
