 xtb: 6.7.1 (edcfbbe)
          04092505213D

 41 40  0     0  0            999 V2000
    3.8152   -2.8450   -0.5889 C   0  0  0  0  0  0  0  0  0  0  0  0
    4.2912   -1.4967   -0.0856 C   0  0  0  0  0  0  0  0  0  0  0  0
    3.7207   -0.4309   -0.8936 O   0  0  0  0  0  0  0  0  0  0  0  0
    2.6208    0.5654   -0.3597 P   0  0  0  0  0  0  0  0  0  0  0  0
    2.1568    1.8869   -1.7241 S   0  0  0  0  0  0  0  0  0  0  0  0
    3.2918    1.1204    0.9715 O   0  0  0  0  0  0  0  0  0  0  0  0
    2.8610    2.3285    1.6229 C   0  0  0  0  0  0  0  0  0  0  0  0
    1.4823    2.1901    2.2354 C   0  0  0  0  0  0  0  0  0  0  0  0
    1.0531   -0.6854    0.3455 S   0  0  0  0  0  0  0  0  0  0  0  0
    0.2106   -0.8455   -1.2658 C   0  0  0  0  0  0  0  0  0  0  0  0
   -1.4152   -1.5837   -1.0773 S   0  0  0  0  0  0  0  0  0  0  0  0
   -2.4439    0.0619   -0.1696 P   0  0  0  0  0  0  0  0  0  0  0  0
   -1.5218    1.7866   -0.2979 S   0  0  0  0  0  0  0  0  0  0  0  0
   -2.7955   -0.4204    1.3038 O   0  0  0  0  0  0  0  0  0  0  0  0
   -1.8276   -0.4273    2.3711 C   0  0  0  0  0  0  0  0  0  0  0  0
   -2.5782   -0.6393    3.6701 C   0  0  0  0  0  0  0  0  0  0  0  0
   -3.8608    0.1092   -0.8484 O   0  0  0  0  0  0  0  0  0  0  0  0
   -4.9581   -0.7991   -0.5718 C   0  0  0  0  0  0  0  0  0  0  0  0
   -4.6231   -2.2347   -0.9129 C   0  0  0  0  0  0  0  0  0  0  0  0
    2.7483   -2.9644   -0.4168 H   0  0  0  0  0  0  0  0  0  0  0  0
    4.0161   -2.9363   -1.6528 H   0  0  0  0  0  0  0  0  0  0  0  0
    4.3469   -3.6276   -0.0570 H   0  0  0  0  0  0  0  0  0  0  0  0
    5.3701   -1.3866   -0.2032 H   0  0  0  0  0  0  0  0  0  0  0  0
    4.0170   -1.3398    0.9593 H   0  0  0  0  0  0  0  0  0  0  0  0
    3.6249    2.4958    2.3838 H   0  0  0  0  0  0  0  0  0  0  0  0
    2.8773    3.1423    0.8915 H   0  0  0  0  0  0  0  0  0  0  0  0
    1.2707    3.0649    2.8417 H   0  0  0  0  0  0  0  0  0  0  0  0
    0.7281    2.1240    1.4511 H   0  0  0  0  0  0  0  0  0  0  0  0
    1.4327    1.2982    2.8556 H   0  0  0  0  0  0  0  0  0  0  0  0
    0.7821   -1.5048   -1.9156 H   0  0  0  0  0  0  0  0  0  0  0  0
    0.1186    0.1538   -1.6993 H   0  0  0  0  0  0  0  0  0  0  0  0
   -1.1103   -1.2320    2.1844 H   0  0  0  0  0  0  0  0  0  0  0  0
   -1.2955    0.5290    2.3640 H   0  0  0  0  0  0  0  0  0  0  0  0
   -3.1160   -1.5821    3.6400 H   0  0  0  0  0  0  0  0  0  0  0  0
   -1.8683   -0.6570    4.4902 H   0  0  0  0  0  0  0  0  0  0  0  0
   -3.2876    0.1681    3.8277 H   0  0  0  0  0  0  0  0  0  0  0  0
   -5.2249   -0.6970    0.4812 H   0  0  0  0  0  0  0  0  0  0  0  0
   -5.7614   -0.4116   -1.2000 H   0  0  0  0  0  0  0  0  0  0  0  0
   -4.2997   -2.3151   -1.9475 H   0  0  0  0  0  0  0  0  0  0  0  0
   -3.8250   -2.6010   -0.2698 H   0  0  0  0  0  0  0  0  0  0  0  0
   -5.5062   -2.8486   -0.7652 H   0  0  0  0  0  0  0  0  0  0  0  0
  1  2  1  0  0  0  0
  2  3  1  0  0  0  0
  3  4  2  0  0  0  0
  4  5  2  0  0  0  0
  4  6  2  0  0  0  0
  6  7  1  0  0  0  0
  7  8  1  0  0  0  0
  4  9  1  0  0  0  0
  9 10  1  0  0  0  0
 10 11  1  0  0  0  0
 11 12  1  0  0  0  0
 12 13  2  0  0  0  0
 12 14  2  0  0  0  0
 14 15  1  0  0  0  0
 15 16  1  0  0  0  0
 12 17  2  0  0  0  0
 17 18  1  0  0  0  0
 18 19  1  0  0  0  0
  1 20  1  0  0  0  0
  1 21  1  0  0  0  0
  1 22  1  0  0  0  0
  2 23  1  0  0  0  0
  2 24  1  0  0  0  0
  7 25  1  0  0  0  0
  7 26  1  0  0  0  0
  8 27  1  0  0  0  0
  8 28  1  0  0  0  0
  8 29  1  0  0  0  0
 10 30  1  0  0  0  0
 10 31  1  0  0  0  0
 15 32  1  0  0  0  0
 15 33  1  0  0  0  0
 16 34  1  0  0  0  0
 16 35  1  0  0  0  0
 16 36  1  0  0  0  0
 18 37  1  0  0  0  0
 18 38  1  0  0  0  0
 19 39  1  0  0  0  0
 19 40  1  0  0  0  0
 19 41  1  0  0  0  0
M  END
