 xtb: 6.7.1 (edcfbbe)
          04092505203D

 41 40  0     0  0            999 V2000
    4.4736    0.3375   -2.2952 C   0  0  0  0  0  0  0  0  0  0  0  0
    4.4420    1.0013   -0.9340 C   0  0  0  0  0  0  0  0  0  0  0  0
    3.6823    0.2384    0.0191 O   0  0  0  0  0  0  0  0  0  0  0  0
    2.1042    0.0614   -0.0892 P   0  0  0  0  0  0  0  0  0  0  0  0
    1.1757    1.7039   -0.6432 S   0  0  0  0  0  0  0  0  0  0  0  0
    1.7561   -0.4915    1.3527 O   0  0  0  0  0  0  0  0  0  0  0  0
    1.7808    0.3627    2.5174 C   0  0  0  0  0  0  0  0  0  0  0  0
    1.0168   -0.3397    3.6204 C   0  0  0  0  0  0  0  0  0  0  0  0
    1.8464   -1.6935   -1.2093 S   0  0  0  0  0  0  0  0  0  0  0  0
    0.0527   -1.6406   -1.4645 C   0  0  0  0  0  0  0  0  0  0  0  0
   -0.9000   -1.8209    0.0754 S   0  0  0  0  0  0  0  0  0  0  0  0
   -1.9777   -0.0057    0.0674 P   0  0  0  0  0  0  0  0  0  0  0  0
   -2.1756    0.8573   -1.6891 S   0  0  0  0  0  0  0  0  0  0  0  0
   -1.2520    0.7457    1.2609 O   0  0  0  0  0  0  0  0  0  0  0  0
   -1.8328    1.8442    1.9982 C   0  0  0  0  0  0  0  0  0  0  0  0
   -2.0176    3.0785    1.1400 C   0  0  0  0  0  0  0  0  0  0  0  0
   -3.3689   -0.3519    0.7600 O   0  0  0  0  0  0  0  0  0  0  0  0
   -4.5183   -0.7760    0.0087 C   0  0  0  0  0  0  0  0  0  0  0  0
   -4.3428   -2.1671   -0.5644 C   0  0  0  0  0  0  0  0  0  0  0  0
    4.8025   -0.6946   -2.2046 H   0  0  0  0  0  0  0  0  0  0  0  0
    3.4779    0.3499   -2.7373 H   0  0  0  0  0  0  0  0  0  0  0  0
    5.1534    0.8796   -2.9446 H   0  0  0  0  0  0  0  0  0  0  0  0
    4.0027    2.0019   -1.0033 H   0  0  0  0  0  0  0  0  0  0  0  0
    5.4360    1.0605   -0.4889 H   0  0  0  0  0  0  0  0  0  0  0  0
    2.8259    0.5276    2.7912 H   0  0  0  0  0  0  0  0  0  0  0  0
    1.3244    1.3223    2.2511 H   0  0  0  0  0  0  0  0  0  0  0  0
    1.4759   -1.3011    3.8311 H   0  0  0  0  0  0  0  0  0  0  0  0
    1.0332    0.2738    4.5155 H   0  0  0  0  0  0  0  0  0  0  0  0
   -0.0120   -0.5057    3.3113 H   0  0  0  0  0  0  0  0  0  0  0  0
   -0.1709   -2.4893   -2.1059 H   0  0  0  0  0  0  0  0  0  0  0  0
   -0.2352   -0.6999   -1.9442 H   0  0  0  0  0  0  0  0  0  0  0  0
   -2.7835    1.5106    2.4204 H   0  0  0  0  0  0  0  0  0  0  0  0
   -1.1129    2.0230    2.7992 H   0  0  0  0  0  0  0  0  0  0  0  0
   -2.7728    2.9007    0.3759 H   0  0  0  0  0  0  0  0  0  0  0  0
   -2.3304    3.9104    1.7629 H   0  0  0  0  0  0  0  0  0  0  0  0
   -1.0833    3.3314    0.6413 H   0  0  0  0  0  0  0  0  0  0  0  0
   -5.3332   -0.7372    0.7328 H   0  0  0  0  0  0  0  0  0  0  0  0
   -4.6939   -0.0507   -0.7924 H   0  0  0  0  0  0  0  0  0  0  0  0
   -4.0462   -2.8631    0.2160 H   0  0  0  0  0  0  0  0  0  0  0  0
   -5.2792   -2.4937   -1.0049 H   0  0  0  0  0  0  0  0  0  0  0  0
   -3.5746   -2.1553   -1.3361 H   0  0  0  0  0  0  0  0  0  0  0  0
  1  2  1  0  0  0  0
  2  3  1  0  0  0  0
  3  4  2  0  0  0  0
  4  5  2  0  0  0  0
  4  6  2  0  0  0  0
  6  7  1  0  0  0  0
  7  8  1  0  0  0  0
  4  9  1  0  0  0  0
  9 10  1  0  0  0  0
 10 11  1  0  0  0  0
 11 12  1  0  0  0  0
 12 13  2  0  0  0  0
 12 14  2  0  0  0  0
 14 15  1  0  0  0  0
 15 16  1  0  0  0  0
 12 17  2  0  0  0  0
 17 18  1  0  0  0  0
 18 19  1  0  0  0  0
  1 20  1  0  0  0  0
  1 21  1  0  0  0  0
  1 22  1  0  0  0  0
  2 23  1  0  0  0  0
  2 24  1  0  0  0  0
  7 25  1  0  0  0  0
  7 26  1  0  0  0  0
  8 27  1  0  0  0  0
  8 28  1  0  0  0  0
  8 29  1  0  0  0  0
 10 30  1  0  0  0  0
 10 31  1  0  0  0  0
 15 32  1  0  0  0  0
 15 33  1  0  0  0  0
 16 34  1  0  0  0  0
 16 35  1  0  0  0  0
 16 36  1  0  0  0  0
 18 37  1  0  0  0  0
 18 38  1  0  0  0  0
 19 39  1  0  0  0  0
 19 40  1  0  0  0  0
 19 41  1  0  0  0  0
M  END
