 xtb: 6.7.1 (edcfbbe)
          04092505203D

 41 40  0     0  0            999 V2000
    4.1008    0.3033   -1.9594 C   0  0  0  0  0  0  0  0  0  0  0  0
    2.6827   -0.1877   -2.1485 C   0  0  0  0  0  0  0  0  0  0  0  0
    2.1503   -0.7628   -0.9375 O   0  0  0  0  0  0  0  0  0  0  0  0
    1.8798    0.1068    0.3528 P   0  0  0  0  0  0  0  0  0  0  0  0
    1.4306    2.0081    0.1381 S   0  0  0  0  0  0  0  0  0  0  0  0
    3.2411   -0.0821    1.1596 O   0  0  0  0  0  0  0  0  0  0  0  0
    3.5810    0.6906    2.3237 C   0  0  0  0  0  0  0  0  0  0  0  0
    5.0921    0.7328    2.4375 C   0  0  0  0  0  0  0  0  0  0  0  0
    0.6291   -1.2158    1.4430 S   0  0  0  0  0  0  0  0  0  0  0  0
   -0.3015   -2.1624    0.1873 C   0  0  0  0  0  0  0  0  0  0  0  0
   -2.0774   -1.8568    0.2436 S   0  0  0  0  0  0  0  0  0  0  0  0
   -1.9924    0.1090   -0.5600 P   0  0  0  0  0  0  0  0  0  0  0  0
   -0.7933    0.2529   -2.1049 S   0  0  0  0  0  0  0  0  0  0  0  0
   -1.5235    1.1113    0.5594 O   0  0  0  0  0  0  0  0  0  0  0  0
   -2.2981    1.5994    1.6821 C   0  0  0  0  0  0  0  0  0  0  0  0
   -2.6365    0.5090    2.6775 C   0  0  0  0  0  0  0  0  0  0  0  0
   -3.5126    0.5128   -0.7517 O   0  0  0  0  0  0  0  0  0  0  0  0
   -4.5190   -0.3204   -1.3611 C   0  0  0  0  0  0  0  0  0  0  0  0
   -4.1610   -0.7331   -2.7729 C   0  0  0  0  0  0  0  0  0  0  0  0
    4.1097    1.1402   -1.2621 H   0  0  0  0  0  0  0  0  0  0  0  0
    4.7236   -0.4946   -1.5636 H   0  0  0  0  0  0  0  0  0  0  0  0
    4.4948    0.6352   -2.9148 H   0  0  0  0  0  0  0  0  0  0  0  0
    2.6224   -1.0045   -2.8692 H   0  0  0  0  0  0  0  0  0  0  0  0
    2.0204    0.6245   -2.4661 H   0  0  0  0  0  0  0  0  0  0  0  0
    3.1582    1.6954    2.2113 H   0  0  0  0  0  0  0  0  0  0  0  0
    3.1296    0.2055    3.1935 H   0  0  0  0  0  0  0  0  0  0  0  0
    5.3652    1.2768    3.3356 H   0  0  0  0  0  0  0  0  0  0  0  0
    5.4864   -0.2776    2.4928 H   0  0  0  0  0  0  0  0  0  0  0  0
    5.5199    1.2317    1.5724 H   0  0  0  0  0  0  0  0  0  0  0  0
   -0.1601   -3.2150    0.4160 H   0  0  0  0  0  0  0  0  0  0  0  0
    0.0789   -1.9092   -0.8023 H   0  0  0  0  0  0  0  0  0  0  0  0
   -1.6394    2.3531    2.1182 H   0  0  0  0  0  0  0  0  0  0  0  0
   -3.1990    2.0751    1.2908 H   0  0  0  0  0  0  0  0  0  0  0  0
   -3.3429   -0.1984    2.2485 H   0  0  0  0  0  0  0  0  0  0  0  0
   -1.7364   -0.0259    2.9740 H   0  0  0  0  0  0  0  0  0  0  0  0
   -3.0834    0.9657    3.5551 H   0  0  0  0  0  0  0  0  0  0  0  0
   -4.6632   -1.1988   -0.7264 H   0  0  0  0  0  0  0  0  0  0  0  0
   -5.4128    0.3056   -1.3416 H   0  0  0  0  0  0  0  0  0  0  0  0
   -3.2723   -1.3625   -2.7667 H   0  0  0  0  0  0  0  0  0  0  0  0
   -4.9864   -1.2889   -3.2055 H   0  0  0  0  0  0  0  0  0  0  0  0
   -3.9555    0.1425   -3.3843 H   0  0  0  0  0  0  0  0  0  0  0  0
  1  2  1  0  0  0  0
  2  3  1  0  0  0  0
  3  4  2  0  0  0  0
  4  5  2  0  0  0  0
  4  6  2  0  0  0  0
  6  7  1  0  0  0  0
  7  8  1  0  0  0  0
  4  9  1  0  0  0  0
  9 10  1  0  0  0  0
 10 11  1  0  0  0  0
 11 12  1  0  0  0  0
 12 13  2  0  0  0  0
 12 14  2  0  0  0  0
 14 15  1  0  0  0  0
 15 16  1  0  0  0  0
 12 17  2  0  0  0  0
 17 18  1  0  0  0  0
 18 19  1  0  0  0  0
  1 20  1  0  0  0  0
  1 21  1  0  0  0  0
  1 22  1  0  0  0  0
  2 23  1  0  0  0  0
  2 24  1  0  0  0  0
  7 25  1  0  0  0  0
  7 26  1  0  0  0  0
  8 27  1  0  0  0  0
  8 28  1  0  0  0  0
  8 29  1  0  0  0  0
 10 30  1  0  0  0  0
 10 31  1  0  0  0  0
 15 32  1  0  0  0  0
 15 33  1  0  0  0  0
 16 34  1  0  0  0  0
 16 35  1  0  0  0  0
 16 36  1  0  0  0  0
 18 37  1  0  0  0  0
 18 38  1  0  0  0  0
 19 39  1  0  0  0  0
 19 40  1  0  0  0  0
 19 41  1  0  0  0  0
M  END
