 xtb: 6.7.1 (edcfbbe)
          04092505203D

 41 40  0     0  0            999 V2000
    2.9008    0.8964   -2.0591 C   0  0  0  0  0  0  0  0  0  0  0  0
    2.1395    1.7439   -1.0630 C   0  0  0  0  0  0  0  0  0  0  0  0
    1.2417    0.9675   -0.2244 O   0  0  0  0  0  0  0  0  0  0  0  0
    1.7117   -0.0826    0.8656 P   0  0  0  0  0  0  0  0  0  0  0  0
    0.5764   -0.1228    2.4620 S   0  0  0  0  0  0  0  0  0  0  0  0
    3.2018    0.3790    1.1631 O   0  0  0  0  0  0  0  0  0  0  0  0
    3.9087   -0.0513    2.3391 C   0  0  0  0  0  0  0  0  0  0  0  0
    4.2508   -1.5256    2.2836 C   0  0  0  0  0  0  0  0  0  0  0  0
    1.9522   -1.9232   -0.1918 S   0  0  0  0  0  0  0  0  0  0  0  0
    0.4568   -1.9046   -1.2119 C   0  0  0  0  0  0  0  0  0  0  0  0
   -1.0917   -1.7778   -0.2644 S   0  0  0  0  0  0  0  0  0  0  0  0
   -1.7384    0.1366   -0.8775 P   0  0  0  0  0  0  0  0  0  0  0  0
   -0.9889    0.9031   -2.5046 S   0  0  0  0  0  0  0  0  0  0  0  0
   -1.5629    0.9731    0.4708 O   0  0  0  0  0  0  0  0  0  0  0  0
   -1.5211    2.4101    0.4820 C   0  0  0  0  0  0  0  0  0  0  0  0
   -2.8885    3.0135    0.2345 C   0  0  0  0  0  0  0  0  0  0  0  0
   -3.3050   -0.0750   -1.0581 O   0  0  0  0  0  0  0  0  0  0  0  0
   -4.1298   -0.6406   -0.0114 C   0  0  0  0  0  0  0  0  0  0  0  0
   -5.5519   -0.1669   -0.2306 C   0  0  0  0  0  0  0  0  0  0  0  0
    3.5363    1.5478   -2.6509 H   0  0  0  0  0  0  0  0  0  0  0  0
    3.5211    0.1656   -1.5457 H   0  0  0  0  0  0  0  0  0  0  0  0
    2.2119    0.3838   -2.7264 H   0  0  0  0  0  0  0  0  0  0  0  0
    1.4672    2.4358   -1.5738 H   0  0  0  0  0  0  0  0  0  0  0  0
    2.8200    2.2902   -0.4090 H   0  0  0  0  0  0  0  0  0  0  0  0
    4.8037    0.5722    2.3483 H   0  0  0  0  0  0  0  0  0  0  0  0
    3.2897    0.1684    3.2149 H   0  0  0  0  0  0  0  0  0  0  0  0
    4.8647   -1.7848    3.1401 H   0  0  0  0  0  0  0  0  0  0  0  0
    3.3374   -2.1189    2.3116 H   0  0  0  0  0  0  0  0  0  0  0  0
    4.7890   -1.7579    1.3685 H   0  0  0  0  0  0  0  0  0  0  0  0
    0.4482   -2.8632   -1.7251 H   0  0  0  0  0  0  0  0  0  0  0  0
    0.4886   -1.0773   -1.9254 H   0  0  0  0  0  0  0  0  0  0  0  0
   -1.1370    2.6524    1.4749 H   0  0  0  0  0  0  0  0  0  0  0  0
   -0.8073    2.7405   -0.2789 H   0  0  0  0  0  0  0  0  0  0  0  0
   -2.8175    4.0951    0.2927 H   0  0  0  0  0  0  0  0  0  0  0  0
   -3.2408    2.7333   -0.7583 H   0  0  0  0  0  0  0  0  0  0  0  0
   -3.5975    2.6594    0.9788 H   0  0  0  0  0  0  0  0  0  0  0  0
   -4.0553   -1.7288   -0.0842 H   0  0  0  0  0  0  0  0  0  0  0  0
   -3.7405   -0.3217    0.9601 H   0  0  0  0  0  0  0  0  0  0  0  0
   -5.6080    0.9152   -0.1494 H   0  0  0  0  0  0  0  0  0  0  0  0
   -5.8887   -0.4608   -1.2205 H   0  0  0  0  0  0  0  0  0  0  0  0
   -6.1949   -0.6176    0.5183 H   0  0  0  0  0  0  0  0  0  0  0  0
  1  2  1  0  0  0  0
  2  3  1  0  0  0  0
  3  4  2  0  0  0  0
  4  5  2  0  0  0  0
  4  6  2  0  0  0  0
  6  7  1  0  0  0  0
  7  8  1  0  0  0  0
  4  9  1  0  0  0  0
  9 10  1  0  0  0  0
 10 11  1  0  0  0  0
 11 12  1  0  0  0  0
 12 13  2  0  0  0  0
 12 14  1  0  0  0  0
 14 15  1  0  0  0  0
 15 16  1  0  0  0  0
 12 17  2  0  0  0  0
 17 18  1  0  0  0  0
 18 19  1  0  0  0  0
  1 20  1  0  0  0  0
  1 21  1  0  0  0  0
  1 22  1  0  0  0  0
  2 23  1  0  0  0  0
  2 24  1  0  0  0  0
  7 25  1  0  0  0  0
  7 26  1  0  0  0  0
  8 27  1  0  0  0  0
  8 28  1  0  0  0  0
  8 29  1  0  0  0  0
 10 30  1  0  0  0  0
 10 31  1  0  0  0  0
 15 32  1  0  0  0  0
 15 33  1  0  0  0  0
 16 34  1  0  0  0  0
 16 35  1  0  0  0  0
 16 36  1  0  0  0  0
 18 37  1  0  0  0  0
 18 38  1  0  0  0  0
 19 39  1  0  0  0  0
 19 40  1  0  0  0  0
 19 41  1  0  0  0  0
M  END
