 xtb: 6.7.1 (edcfbbe)
          04092505213D

 41 40  0     0  0            999 V2000
    3.2300    1.3219   -2.2510 C   0  0  0  0  0  0  0  0  0  0  0  0
    3.9539    0.1571   -1.6069 C   0  0  0  0  0  0  0  0  0  0  0  0
    3.5578   -0.0689   -0.2437 O   0  0  0  0  0  0  0  0  0  0  0  0
    2.0597   -0.1597    0.2832 P   0  0  0  0  0  0  0  0  0  0  0  0
    1.2416    1.5929    0.6422 S   0  0  0  0  0  0  0  0  0  0  0  0
    2.2104   -1.0706    1.5692 O   0  0  0  0  0  0  0  0  0  0  0  0
    2.3236   -0.5220    2.8974 C   0  0  0  0  0  0  0  0  0  0  0  0
    3.6981    0.0698    3.1248 C   0  0  0  0  0  0  0  0  0  0  0  0
    1.2300   -1.5775   -1.0568 S   0  0  0  0  0  0  0  0  0  0  0  0
   -0.1791   -2.1972   -0.0745 C   0  0  0  0  0  0  0  0  0  0  0  0
   -1.0360   -0.9540    0.9163 S   0  0  0  0  0  0  0  0  0  0  0  0
   -2.0063    0.1152   -0.6659 P   0  0  0  0  0  0  0  0  0  0  0  0
   -0.9496    0.8126   -2.1544 S   0  0  0  0  0  0  0  0  0  0  0  0
   -2.8849    1.1803    0.1141 O   0  0  0  0  0  0  0  0  0  0  0  0
   -2.3598    2.3936    0.6864 C   0  0  0  0  0  0  0  0  0  0  0  0
   -2.1037    2.2193    2.1697 C   0  0  0  0  0  0  0  0  0  0  0  0
   -3.0751   -0.9141   -1.1950 O   0  0  0  0  0  0  0  0  0  0  0  0
   -4.1079   -1.5138   -0.3717 C   0  0  0  0  0  0  0  0  0  0  0  0
   -5.4015   -0.7331   -0.4775 C   0  0  0  0  0  0  0  0  0  0  0  0
    3.6226    1.4844   -3.2496 H   0  0  0  0  0  0  0  0  0  0  0  0
    2.1615    1.1126   -2.3270 H   0  0  0  0  0  0  0  0  0  0  0  0
    3.3613    2.2263   -1.6608 H   0  0  0  0  0  0  0  0  0  0  0  0
    5.0268    0.3459   -1.5357 H   0  0  0  0  0  0  0  0  0  0  0  0
    3.7753   -0.7643   -2.1691 H   0  0  0  0  0  0  0  0  0  0  0  0
    1.5477    0.2394    3.0286 H   0  0  0  0  0  0  0  0  0  0  0  0
    2.1278   -1.3709    3.5531 H   0  0  0  0  0  0  0  0  0  0  0  0
    3.8516    0.9038    2.4405 H   0  0  0  0  0  0  0  0  0  0  0  0
    3.7750    0.4283    4.1463 H   0  0  0  0  0  0  0  0  0  0  0  0
    4.4649   -0.6777    2.9410 H   0  0  0  0  0  0  0  0  0  0  0  0
    0.1876   -2.9413    0.6290 H   0  0  0  0  0  0  0  0  0  0  0  0
   -0.8661   -2.6382   -0.7953 H   0  0  0  0  0  0  0  0  0  0  0  0
   -1.4430    2.6763    0.1597 H   0  0  0  0  0  0  0  0  0  0  0  0
   -3.1311    3.1432    0.5009 H   0  0  0  0  0  0  0  0  0  0  0  0
   -1.7909    3.1708    2.5867 H   0  0  0  0  0  0  0  0  0  0  0  0
   -3.0059    1.8799    2.6702 H   0  0  0  0  0  0  0  0  0  0  0  0
   -1.3104    1.4926    2.3315 H   0  0  0  0  0  0  0  0  0  0  0  0
   -4.2216   -2.5227   -0.7727 H   0  0  0  0  0  0  0  0  0  0  0  0
   -3.7562   -1.5599    0.6625 H   0  0  0  0  0  0  0  0  0  0  0  0
   -5.2714    0.2692   -0.0790 H   0  0  0  0  0  0  0  0  0  0  0  0
   -5.7067   -0.6583   -1.5177 H   0  0  0  0  0  0  0  0  0  0  0  0
   -6.1730   -1.2474    0.0871 H   0  0  0  0  0  0  0  0  0  0  0  0
  1  2  1  0  0  0  0
  2  3  1  0  0  0  0
  3  4  2  0  0  0  0
  4  5  2  0  0  0  0
  4  6  2  0  0  0  0
  6  7  1  0  0  0  0
  7  8  1  0  0  0  0
  4  9  1  0  0  0  0
  9 10  1  0  0  0  0
 10 11  1  0  0  0  0
 11 12  1  0  0  0  0
 12 13  2  0  0  0  0
 12 14  2  0  0  0  0
 14 15  1  0  0  0  0
 15 16  1  0  0  0  0
 12 17  2  0  0  0  0
 17 18  1  0  0  0  0
 18 19  1  0  0  0  0
  1 20  1  0  0  0  0
  1 21  1  0  0  0  0
  1 22  1  0  0  0  0
  2 23  1  0  0  0  0
  2 24  1  0  0  0  0
  7 25  1  0  0  0  0
  7 26  1  0  0  0  0
  8 27  1  0  0  0  0
  8 28  1  0  0  0  0
  8 29  1  0  0  0  0
 10 30  1  0  0  0  0
 10 31  1  0  0  0  0
 15 32  1  0  0  0  0
 15 33  1  0  0  0  0
 16 34  1  0  0  0  0
 16 35  1  0  0  0  0
 16 36  1  0  0  0  0
 18 37  1  0  0  0  0
 18 38  1  0  0  0  0
 19 39  1  0  0  0  0
 19 40  1  0  0  0  0
 19 41  1  0  0  0  0
M  END
