  16
 
 C          0.7296076614       -1.1923615653        0.2246357813
 C         -0.7325519734       -1.1913846668       -0.2175088179
 N         -1.3775452659        0.0008702053        0.3088819699
 C         -0.7309756314        1.1921888512       -0.2177013169
 C          0.7311895962        1.1913159383        0.2244152371
 N          1.3764239985       -0.0009987540       -0.3017997147
 H          1.2372476852       -2.0729074955       -0.1727931820
 H          0.7599416806       -1.2271897337        1.3270212712
 H         -0.7628573898       -1.2261394330       -1.3198690816
 H         -1.2413149424       -2.0711317565        0.1799846205
 H         -2.3596009267        0.0015009141        0.0540982847
 H         -0.7612617266        1.2268219797       -1.3200639960
 H         -1.2385841776        2.0726585477        0.1796747033
 H          1.2399830774        2.0711084289       -0.1731722001
 H          0.7615799392        1.2263071172        1.3267950185
 H          2.3581736611       -0.0016252608       -0.0458293462
          16
        -19.50508368
 C          0.7343318399       -1.1972068489       -0.2314776380
 C         -0.7317278973       -1.1986642126        0.2316849359
 N         -1.4476358227       -0.0014320634       -0.1925629997
 C         -0.7342675703        1.1971244215        0.2318965307
 C          0.7316295382        1.1986164992       -0.2317186282
 N          1.4476244324        0.0015676220        0.1921720798
 H          0.7727636294       -1.2289439639       -1.3258151597
 H          1.2601138891       -2.0700163686        0.1587628424
 H         -1.2557032804       -2.0726412254       -0.1584220485
 H         -0.7703271529       -1.2301932092        1.3260062747
 H         -1.5114691354       -0.0014175658       -1.2073600656
 H         -1.2603045960        2.0701867397       -0.1575852935
 H         -0.7724880961        1.2281164555        1.3262858475
 H          0.7697062580        1.2301194734       -1.3261160925
 H          1.2557217423        2.0727264331        0.1580548404
 H          1.5125512710        0.0017302546        1.2070310574
