 xtb: 6.7.1 (edcfbbe)
          04092514033D

 41 40  0     0  0            999 V2000
    3.8259    1.7365   -1.1049 C   0  0  0  0  0  0  0  0  0  0  0  0
    3.9896    0.7043   -0.0073 C   0  0  0  0  0  0  0  0  0  0  0  0
    3.1756   -0.4533   -0.2851 O   0  0  0  0  0  0  0  0  0  0  0  0
    1.9952   -0.9934    0.6385 P   0  0  0  0  0  0  0  0  0  0  0  0
    1.5653    0.1292    2.1889 S   0  0  0  0  0  0  0  0  0  0  0  0
    2.3796   -2.4968    0.9897 O   0  0  0  0  0  0  0  0  0  0  0  0
    2.9768   -2.8761    2.2451 C   0  0  0  0  0  0  0  0  0  0  0  0
    4.4125   -2.4033    2.3602 C   0  0  0  0  0  0  0  0  0  0  0  0
    0.5158   -1.5171   -0.7689 S   0  0  0  0  0  0  0  0  0  0  0  0
    0.4464    0.0013   -1.7648 C   0  0  0  0  0  0  0  0  0  0  0  0
   -0.1428    1.4666   -0.8641 S   0  0  0  0  0  0  0  0  0  0  0  0
   -2.1497    0.8762   -0.6144 P   0  0  0  0  0  0  0  0  0  0  0  0
   -2.9506   -0.1622   -2.0752 S   0  0  0  0  0  0  0  0  0  0  0  0
   -2.8906    2.2359   -0.2508 O   0  0  0  0  0  0  0  0  0  0  0  0
   -3.2325    3.2306   -1.2422 C   0  0  0  0  0  0  0  0  0  0  0  0
   -4.7317    3.2558   -1.4709 C   0  0  0  0  0  0  0  0  0  0  0  0
   -2.0995    0.1741    0.7985 O   0  0  0  0  0  0  0  0  0  0  0  0
   -3.0461   -0.8176    1.2543 C   0  0  0  0  0  0  0  0  0  0  0  0
   -2.2945   -1.8423    2.0797 C   0  0  0  0  0  0  0  0  0  0  0  0
    2.8038    2.1110   -1.1247 H   0  0  0  0  0  0  0  0  0  0  0  0
    4.5000    2.5648   -0.9104 H   0  0  0  0  0  0  0  0  0  0  0  0
    4.0696    1.3003   -2.0699 H   0  0  0  0  0  0  0  0  0  0  0  0
    3.6998    1.1164    0.9654 H   0  0  0  0  0  0  0  0  0  0  0  0
    5.0180    0.3396    0.0405 H   0  0  0  0  0  0  0  0  0  0  0  0
    2.3716   -2.4616    3.0575 H   0  0  0  0  0  0  0  0  0  0  0  0
    2.9103   -3.9650    2.2494 H   0  0  0  0  0  0  0  0  0  0  0  0
    5.0008   -2.7664    1.5216 H   0  0  0  0  0  0  0  0  0  0  0  0
    4.4438   -1.3142    2.3745 H   0  0  0  0  0  0  0  0  0  0  0  0
    4.8377   -2.7779    3.2865 H   0  0  0  0  0  0  0  0  0  0  0  0
   -0.2428   -0.2187   -2.5809 H   0  0  0  0  0  0  0  0  0  0  0  0
    1.4379    0.2429   -2.1391 H   0  0  0  0  0  0  0  0  0  0  0  0
   -2.8777    4.1777   -0.8313 H   0  0  0  0  0  0  0  0  0  0  0  0
   -2.7010    3.0136   -2.1728 H   0  0  0  0  0  0  0  0  0  0  0  0
   -5.0638    2.3141   -1.9023 H   0  0  0  0  0  0  0  0  0  0  0  0
   -5.2515    3.4160   -0.5305 H   0  0  0  0  0  0  0  0  0  0  0  0
   -4.9718    4.0638   -2.1550 H   0  0  0  0  0  0  0  0  0  0  0  0
   -3.7986   -0.2981    1.8519 H   0  0  0  0  0  0  0  0  0  0  0  0
   -3.5262   -1.2770    0.3832 H   0  0  0  0  0  0  0  0  0  0  0  0
   -2.9979   -2.5574    2.4935 H   0  0  0  0  0  0  0  0  0  0  0  0
   -1.5707   -2.3669    1.4595 H   0  0  0  0  0  0  0  0  0  0  0  0
   -1.7651   -1.3451    2.8889 H   0  0  0  0  0  0  0  0  0  0  0  0
  1  2  1  0  0  0  0
  2  3  1  0  0  0  0
  3  4  2  0  0  0  0
  4  5  2  0  0  0  0
  4  6  2  0  0  0  0
  6  7  1  0  0  0  0
  7  8  1  0  0  0  0
  4  9  1  0  0  0  0
  9 10  1  0  0  0  0
 10 11  1  0  0  0  0
 11 12  1  0  0  0  0
 12 13  2  0  0  0  0
 12 14  2  0  0  0  0
 14 15  1  0  0  0  0
 15 16  1  0  0  0  0
 12 17  2  0  0  0  0
 17 18  1  0  0  0  0
 18 19  1  0  0  0  0
  1 20  1  0  0  0  0
  1 21  1  0  0  0  0
  1 22  1  0  0  0  0
  2 23  1  0  0  0  0
  2 24  1  0  0  0  0
  7 25  1  0  0  0  0
  7 26  1  0  0  0  0
  8 27  1  0  0  0  0
  8 28  1  0  0  0  0
  8 29  1  0  0  0  0
 10 30  1  0  0  0  0
 10 31  1  0  0  0  0
 15 32  1  0  0  0  0
 15 33  1  0  0  0  0
 16 34  1  0  0  0  0
 16 35  1  0  0  0  0
 16 36  1  0  0  0  0
 18 37  1  0  0  0  0
 18 38  1  0  0  0  0
 19 39  1  0  0  0  0
 19 40  1  0  0  0  0
 19 41  1  0  0  0  0
M  END
