41
 xtb: 6.7.1 (edcfbbe)
C            5.46005543269652       -1.81391423923536       -2.04726178500424
C            4.59976844473171       -0.67628059640313       -1.56361308839919
O            3.57914942959971       -1.25318602126862       -0.67535126390428
P            2.46852421976419       -0.31252410152318        0.01747986727432
S            3.09583344200539        1.35075315195259        0.81429770279020
O            1.75161030540921       -1.36791980021135        0.98510809592551
C            2.25930812445465       -1.64393927975138        2.34309631622971
C            1.24550639242827       -1.16413224832163        3.34913275806041
S            1.04354289897269       -0.12376440349170       -1.54171550104308
C            0.16119240943320        1.40178769948543       -1.02721129627305
S           -0.95181850117184        1.27271102438800        0.42502226761228
P           -2.64502603052840        0.33025245060635       -0.45521726462488
S           -3.18031285350811        1.00375854524297       -2.20114771619435
O           -3.70062028576935        0.45376171332478        0.75068437423530
C           -4.71030633201888        1.52036428491683        0.84049480896326
C           -4.13363833483262        2.80258579411040        1.38494299176907
O           -2.35834969312234       -1.24533805286021       -0.51792247678419
C           -1.65432113932133       -2.03008660386693        0.51250297731546
C           -2.49893795825083       -2.28457480802522        1.73678922781145
H            5.94534472866328       -2.32028833191012       -1.20821787009483
H            4.87044673995209       -2.54097612438853       -2.61247545413594
H            6.23728644942491       -1.41251316622214       -2.70466272046895
H            4.09229448720505       -0.17029824473931       -2.39147494055350
H            5.17423487308590        0.05649289261231       -0.98984097966124
H            2.39581131422028       -2.72737273057905        2.37903188320243
H            3.23033236872345       -1.15842977842797        2.47670745931103
H            0.27510282015011       -1.64220109060162        3.18335951944553
H            1.59070763738760       -1.42334347510588        4.35532132327333
H            1.12227049930815       -0.07864000849705        3.29286939876601
H           -0.41619905374362        1.72526469283448       -1.89940917136630
H            0.89661424943258        2.17059202647379       -0.77358327934771
H           -5.15267003558218        1.65639667564973       -0.15066624415580
H           -5.46143678407559        1.10001432489515        1.51216329184372
H           -3.41927861158371        3.25219016522300        0.68997138098794
H           -4.95309754908281        3.51263460263299        1.53723503406951
H           -3.64090345647982        2.63467853947976        2.34701539717795
H           -1.41669634283528       -2.95956672022682       -0.00899640566362
H           -0.72211401236699       -1.51529801151581        0.75674814916058
H           -3.47700789820607       -2.69109231921836        1.46352623735371
H           -1.98282127675722       -3.02512059619800        2.35684536981705
H           -2.64014401077589       -1.37994444316789        2.33324066075272
