 xtb: 6.7.1 (edcfbbe)
          04092505213D

 41 40  0     0  0            999 V2000
    4.7485    2.2946   -1.0720 C   0  0  0  0  0  0  0  0  0  0  0  0
    3.3386    1.8217   -0.7817 C   0  0  0  0  0  0  0  0  0  0  0  0
    3.4314    0.6330    0.0285 O   0  0  0  0  0  0  0  0  0  0  0  0
    2.1646    0.0554    0.7913 P   0  0  0  0  0  0  0  0  0  0  0  0
    1.2060    1.3518    1.8927 S   0  0  0  0  0  0  0  0  0  0  0  0
    2.7447   -1.1369    1.6373 O   0  0  0  0  0  0  0  0  0  0  0  0
    3.6540   -2.1366    1.1051 C   0  0  0  0  0  0  0  0  0  0  0  0
    5.0915   -1.7553    1.3905 C   0  0  0  0  0  0  0  0  0  0  0  0
    1.0965   -0.8756   -0.8226 S   0  0  0  0  0  0  0  0  0  0  0  0
   -0.0364   -1.8830    0.1708 C   0  0  0  0  0  0  0  0  0  0  0  0
   -1.3476   -0.9355    0.9862 S   0  0  0  0  0  0  0  0  0  0  0  0
   -2.2369   -0.1663   -0.7969 P   0  0  0  0  0  0  0  0  0  0  0  0
   -2.1828   -1.3649   -2.3376 S   0  0  0  0  0  0  0  0  0  0  0  0
   -1.5575    1.2224   -1.0898 O   0  0  0  0  0  0  0  0  0  0  0  0
   -1.5842    2.3414   -0.1686 C   0  0  0  0  0  0  0  0  0  0  0  0
   -2.7140    3.2889   -0.5100 C   0  0  0  0  0  0  0  0  0  0  0  0
   -3.6849    0.2431   -0.2912 O   0  0  0  0  0  0  0  0  0  0  0  0
   -4.6656   -0.7656    0.0325 C   0  0  0  0  0  0  0  0  0  0  0  0
   -6.0107   -0.0809    0.1616 C   0  0  0  0  0  0  0  0  0  0  0  0
    5.2997    1.5207   -1.5983 H   0  0  0  0  0  0  0  0  0  0  0  0
    4.7047    3.1858   -1.6892 H   0  0  0  0  0  0  0  0  0  0  0  0
    5.2620    2.5270   -0.1433 H   0  0  0  0  0  0  0  0  0  0  0  0
    2.8026    1.5687   -1.7010 H   0  0  0  0  0  0  0  0  0  0  0  0
    2.7673    2.5744   -0.2283 H   0  0  0  0  0  0  0  0  0  0  0  0
    3.3786   -3.0573    1.6230 H   0  0  0  0  0  0  0  0  0  0  0  0
    3.4771   -2.2434    0.0317 H   0  0  0  0  0  0  0  0  0  0  0  0
    5.3481   -0.8365    0.8706 H   0  0  0  0  0  0  0  0  0  0  0  0
    5.2317   -1.6056    2.4575 H   0  0  0  0  0  0  0  0  0  0  0  0
    5.7437   -2.5541    1.0513 H   0  0  0  0  0  0  0  0  0  0  0  0
    0.5090   -2.3956    0.9597 H   0  0  0  0  0  0  0  0  0  0  0  0
   -0.4888   -2.5876   -0.5272 H   0  0  0  0  0  0  0  0  0  0  0  0
   -1.6696    1.9640    0.8545 H   0  0  0  0  0  0  0  0  0  0  0  0
   -0.6095    2.8187   -0.2882 H   0  0  0  0  0  0  0  0  0  0  0  0
   -2.6625    4.1489    0.1502 H   0  0  0  0  0  0  0  0  0  0  0  0
   -2.6223    3.6189   -1.5412 H   0  0  0  0  0  0  0  0  0  0  0  0
   -3.6726    2.7933   -0.3827 H   0  0  0  0  0  0  0  0  0  0  0  0
   -4.6686   -1.5141   -0.7665 H   0  0  0  0  0  0  0  0  0  0  0  0
   -4.3675   -1.2432    0.9700 H   0  0  0  0  0  0  0  0  0  0  0  0
   -6.7630   -0.8216    0.4119 H   0  0  0  0  0  0  0  0  0  0  0  0
   -5.9724    0.6707    0.9449 H   0  0  0  0  0  0  0  0  0  0  0  0
   -6.2776    0.3981   -0.7762 H   0  0  0  0  0  0  0  0  0  0  0  0
  1  2  1  0  0  0  0
  2  3  1  0  0  0  0
  3  4  2  0  0  0  0
  4  5  2  0  0  0  0
  4  6  2  0  0  0  0
  6  7  1  0  0  0  0
  7  8  1  0  0  0  0
  4  9  1  0  0  0  0
  9 10  1  0  0  0  0
 10 11  1  0  0  0  0
 11 12  1  0  0  0  0
 12 13  2  0  0  0  0
 12 14  2  0  0  0  0
 14 15  1  0  0  0  0
 15 16  1  0  0  0  0
 12 17  2  0  0  0  0
 17 18  1  0  0  0  0
 18 19  1  0  0  0  0
  1 20  1  0  0  0  0
  1 21  1  0  0  0  0
  1 22  1  0  0  0  0
  2 23  1  0  0  0  0
  2 24  1  0  0  0  0
  7 25  1  0  0  0  0
  7 26  1  0  0  0  0
  8 27  1  0  0  0  0
  8 28  1  0  0  0  0
  8 29  1  0  0  0  0
 10 30  1  0  0  0  0
 10 31  1  0  0  0  0
 15 32  1  0  0  0  0
 15 33  1  0  0  0  0
 16 34  1  0  0  0  0
 16 35  1  0  0  0  0
 16 36  1  0  0  0  0
 18 37  1  0  0  0  0
 18 38  1  0  0  0  0
 19 39  1  0  0  0  0
 19 40  1  0  0  0  0
 19 41  1  0  0  0  0
M  END
