41
 xtb: 6.7.1 (edcfbbe)
C            5.20956110496587       -0.52406520918828       -2.06014846720754
C            4.18484123222871       -1.54580816490752       -1.63662483325742
O            3.58777002239682       -1.25509286747661       -0.32341487794282
P            2.60238854163966       -0.03140309052002        0.01437023386333
S            3.29964397032319        1.78117201767881        0.11988437319553
O            2.05158361472652       -0.49021752459785        1.45148571171549
C            1.52671893855004       -1.84790582377453        1.68032843981680
C            0.79163495804346       -1.82501922530689        2.99513511149278
S            1.06355905722349       -0.33726880458766       -1.42582701373260
C            0.20473901736880        1.28170870312770       -1.36353817499309
S           -0.75248807270106        1.67092121584829        0.15257894436003
P           -2.32287642384745        0.25648076277121       -0.00222872928954
S           -3.01603680682903       -0.08723260964473       -1.78988475315823
O           -3.35568353227585        0.82253425227744        1.09656597475520
C           -4.53384548375467        1.62977992418925        0.74808648846560
C           -4.17475039436108        3.06951251130413        0.47814855442938
O           -1.68628350929304       -0.99235641209841        0.78281668287594
C           -2.24060790293914       -2.34913973040198        0.65495799734280
C           -3.57786738333137       -2.48298214082838        1.34120596674213
H            5.96801715931600       -0.38203008364930       -1.28527874738654
H            5.70435847635279       -0.89647986739421       -2.96319591799485
H            4.75092730665617        0.43961673608178       -2.29301473969541
H            4.63823084372008       -2.52739832507392       -1.48635131463821
H            3.37889771109810       -1.64145654492705       -2.37000713975003
H            0.86419350360380       -2.11263061313094        0.84935311266687
H            2.37607306106381       -2.53605690250339        1.70011387582304
H            1.46492576827060       -1.55320975276318        3.81317634392190
H           -0.04204266253711       -1.11826742123319        2.96802342929863
H            0.39356727452413       -2.82457740716974        3.19602185117707
H           -0.46650220299612        1.28842465327552       -2.22737523506106
H            0.93841153236924        2.08701110974482       -1.46309149228933
H           -5.02820640017608        1.16227809083366       -0.10853912790912
H           -5.17538436168553        1.53361408313021        1.62627971344348
H           -3.57364149673765        3.17318286421739       -0.42957975668424
H           -5.10055592778171        3.63765198765963        0.34032519153328
H           -3.62763865672449        3.50224085739254        1.32077938472293
H           -2.29687038013917       -2.59553871960920       -0.40985548444302
H           -1.48179231534769       -2.97710588355648        1.12687974210863
H           -4.34900471456820       -1.88505401711954        0.84594575984878
H           -3.88533095376804       -3.53314738779840        1.30183047057721
H           -3.51082381666673       -2.18187758601449        2.39061023474786
