 xtb: 6.7.1 (edcfbbe)
          04092513573D

 41 40  0     0  0            999 V2000
    5.7221   -1.8197    0.4123 C   0  0  0  0  0  0  0  0  0  0  0  0
    4.4537   -1.5694   -0.3794 C   0  0  0  0  0  0  0  0  0  0  0  0
    3.6267   -0.6622    0.3790 O   0  0  0  0  0  0  0  0  0  0  0  0
    2.4074    0.1166   -0.2772 P   0  0  0  0  0  0  0  0  0  0  0  0
    2.8142    1.0535   -1.9564 S   0  0  0  0  0  0  0  0  0  0  0  0
    1.9126    1.0105    0.9295 O   0  0  0  0  0  0  0  0  0  0  0  0
    2.3140    2.3853    1.0967 C   0  0  0  0  0  0  0  0  0  0  0  0
    3.7566    2.4994    1.5431 C   0  0  0  0  0  0  0  0  0  0  0  0
    0.8889   -1.3500   -0.3656 S   0  0  0  0  0  0  0  0  0  0  0  0
   -0.1874   -0.5188   -1.5618 C   0  0  0  0  0  0  0  0  0  0  0  0
   -1.0046    0.9753   -0.9111 S   0  0  0  0  0  0  0  0  0  0  0  0
   -2.7329    0.1293   -0.0357 P   0  0  0  0  0  0  0  0  0  0  0  0
   -3.9689    1.3992    0.7956 S   0  0  0  0  0  0  0  0  0  0  0  0
   -2.2292   -1.0503    0.9136 O   0  0  0  0  0  0  0  0  0  0  0  0
   -2.0989   -0.8840    2.3333 C   0  0  0  0  0  0  0  0  0  0  0  0
   -0.9166   -0.0102    2.6985 C   0  0  0  0  0  0  0  0  0  0  0  0
   -3.2912   -0.6820   -1.2826 O   0  0  0  0  0  0  0  0  0  0  0  0
   -4.6702   -1.1134   -1.3335 C   0  0  0  0  0  0  0  0  0  0  0  0
   -4.9681   -2.2096   -0.3311 C   0  0  0  0  0  0  0  0  0  0  0  0
    6.3447   -2.5257   -0.1279 H   0  0  0  0  0  0  0  0  0  0  0  0
    6.2706   -0.8922    0.5494 H   0  0  0  0  0  0  0  0  0  0  0  0
    5.4757   -2.2303    1.3870 H   0  0  0  0  0  0  0  0  0  0  0  0
    3.8932   -2.4953   -0.5342 H   0  0  0  0  0  0  0  0  0  0  0  0
    4.6702   -1.1147   -1.3519 H   0  0  0  0  0  0  0  0  0  0  0  0
    2.1557    2.9121    0.1500 H   0  0  0  0  0  0  0  0  0  0  0  0
    1.6254    2.7700    1.8501 H   0  0  0  0  0  0  0  0  0  0  0  0
    3.9202    1.9129    2.4431 H   0  0  0  0  0  0  0  0  0  0  0  0
    4.4181    2.1350    0.7583 H   0  0  0  0  0  0  0  0  0  0  0  0
    3.9876    3.5414    1.7435 H   0  0  0  0  0  0  0  0  0  0  0  0
   -0.9391   -1.2369   -1.8749 H   0  0  0  0  0  0  0  0  0  0  0  0
    0.4159   -0.1779   -2.4037 H   0  0  0  0  0  0  0  0  0  0  0  0
   -3.0264   -0.4448    2.7165 H   0  0  0  0  0  0  0  0  0  0  0  0
   -1.9812   -1.9008    2.7096 H   0  0  0  0  0  0  0  0  0  0  0  0
    0.0039   -0.4174    2.2869 H   0  0  0  0  0  0  0  0  0  0  0  0
   -1.0643    0.9947    2.3017 H   0  0  0  0  0  0  0  0  0  0  0  0
   -0.8314    0.0464    3.7789 H   0  0  0  0  0  0  0  0  0  0  0  0
   -5.3103   -0.2438   -1.1529 H   0  0  0  0  0  0  0  0  0  0  0  0
   -4.7972   -1.4598   -2.3600 H   0  0  0  0  0  0  0  0  0  0  0  0
   -4.2665   -3.0314   -0.4475 H   0  0  0  0  0  0  0  0  0  0  0  0
   -4.8921   -1.8202    0.6830 H   0  0  0  0  0  0  0  0  0  0  0  0
   -5.9788   -2.5730   -0.4912 H   0  0  0  0  0  0  0  0  0  0  0  0
  1  2  1  0  0  0  0
  2  3  1  0  0  0  0
  3  4  2  0  0  0  0
  4  5  2  0  0  0  0
  4  6  2  0  0  0  0
  6  7  1  0  0  0  0
  7  8  1  0  0  0  0
  4  9  1  0  0  0  0
  9 10  1  0  0  0  0
 10 11  1  0  0  0  0
 11 12  1  0  0  0  0
 12 13  2  0  0  0  0
 12 14  2  0  0  0  0
 14 15  1  0  0  0  0
 15 16  1  0  0  0  0
 12 17  2  0  0  0  0
 17 18  1  0  0  0  0
 18 19  1  0  0  0  0
  1 20  1  0  0  0  0
  1 21  1  0  0  0  0
  1 22  1  0  0  0  0
  2 23  1  0  0  0  0
  2 24  1  0  0  0  0
  7 25  1  0  0  0  0
  7 26  1  0  0  0  0
  8 27  1  0  0  0  0
  8 28  1  0  0  0  0
  8 29  1  0  0  0  0
 10 30  1  0  0  0  0
 10 31  1  0  0  0  0
 15 32  1  0  0  0  0
 15 33  1  0  0  0  0
 16 34  1  0  0  0  0
 16 35  1  0  0  0  0
 16 36  1  0  0  0  0
 18 37  1  0  0  0  0
 18 38  1  0  0  0  0
 19 39  1  0  0  0  0
 19 40  1  0  0  0  0
 19 41  1  0  0  0  0
M  END
