 xtb: 6.7.1 (edcfbbe)
          04032519423D

 20 20  0     0  0            999 V2000
    0.8471    1.2795   -1.0069 C   0  0  0  0  0  0  0  0  0  0  0  0
    1.4403    0.3032    0.0102 C   0  0  0  0  0  0  0  0  0  0  0  0
    2.4590    0.0425   -0.3049 H   0  0  0  0  0  0  0  0  0  0  0  0
    0.6262   -1.0022    0.0198 C   0  0  0  0  0  0  0  0  0  0  0  0
    0.5913   -1.3757    1.0531 H   0  0  0  0  0  0  0  0  0  0  0  0
   -0.8242   -0.7613   -0.4407 C   0  0  0  0  0  0  0  0  0  0  0  0
   -0.8571   -0.8378   -1.5401 H   0  0  0  0  0  0  0  0  0  0  0  0
   -1.2840    0.6619   -0.0644 C   0  0  0  0  0  0  0  0  0  0  0  0
   -2.3144    0.8264   -0.4092 H   0  0  0  0  0  0  0  0  0  0  0  0
   -0.5072    1.6310   -0.7245 O   0  0  0  0  0  0  0  0  0  0  0  0
   -1.3309    0.8696    1.3105 O   0  0  0  0  0  0  0  0  0  0  0  0
   -1.6210   -1.7576    0.1473 O   0  0  0  0  0  0  0  0  0  0  0  0
    1.2838   -1.9192   -0.8184 O   0  0  0  0  0  0  0  0  0  0  0  0
    1.4417    0.8250    1.3210 O   0  0  0  0  0  0  0  0  0  0  0  0
    0.9096    0.8232   -2.0021 H   0  0  0  0  0  0  0  0  0  0  0  0
    1.3886    2.2273   -1.0127 H   0  0  0  0  0  0  0  0  0  0  0  0
   -0.4188    0.8801    1.6657 H   0  0  0  0  0  0  0  0  0  0  0  0
   -2.5584   -1.5738   -0.0038 H   0  0  0  0  0  0  0  0  0  0  0  0
    0.8317   -2.7737   -0.7675 H   0  0  0  0  0  0  0  0  0  0  0  0
    2.0150    1.6044    1.3633 H   0  0  0  0  0  0  0  0  0  0  0  0
  1  2  1  0  0  0  0
  2  3  1  0  0  0  0
  2  4  1  0  0  0  0
  4  5  1  0  0  0  0
  4  6  1  0  0  0  0
  6  7  1  0  0  0  0
  6  8  1  0  0  0  0
  8  9  1  0  0  0  0
  1 10  1  0  0  0  0
  8 10  1  0  0  0  0
  8 11  1  0  0  0  0
  6 12  1  0  0  0  0
  4 13  1  0  0  0  0
  2 14  1  0  0  0  0
  1 15  1  0  0  0  0
  1 16  1  0  0  0  0
 11 17  1  0  0  0  0
 12 18  1  0  0  0  0
 13 19  1  0  0  0  0
 14 20  1  0  0  0  0
M  END
