 xtb: 6.7.1 (edcfbbe)
          04092507313D

 38 37  0     0  0            999 V2000
    4.0045   -2.8398    0.5132 C   0  0  0  0  0  0  0  0  0  0  0  0
    2.5063   -2.8456    0.2578 C   0  0  0  0  0  0  0  0  0  0  0  0
    2.1729   -2.0209   -0.8755 O   0  0  0  0  0  0  0  0  0  0  0  0
    2.0295   -0.7283   -0.6973 C   0  0  0  0  0  0  0  0  0  0  0  0
    2.1330   -0.1499    0.3663 O   0  0  0  0  0  0  0  0  0  0  0  0
    1.7064    0.0001   -1.9879 C   0  0  0  0  0  0  0  0  0  0  0  0
    0.4823    0.8963   -1.7813 C   0  0  0  0  0  0  0  0  0  0  0  0
    0.4102    1.6232   -2.5932 H   0  0  0  0  0  0  0  0  0  0  0  0
    0.5578    1.6321   -0.4586 C   0  0  0  0  0  0  0  0  0  0  0  0
   -0.2745    1.4626    0.4204 O   0  0  0  0  0  0  0  0  0  0  0  0
    1.5384    2.4773   -0.4091 O   0  0  0  0  0  0  0  0  0  0  0  0
    1.7604    3.2108    0.8172 C   0  0  0  0  0  0  0  0  0  0  0  0
    0.8620    4.4333    0.8945 C   0  0  0  0  0  0  0  0  0  0  0  0
   -1.0824   -0.0486   -1.8257 S   0  0  0  0  0  0  0  0  0  0  0  0
   -1.6457   -0.4185    0.1816 P   0  0  0  0  0  0  0  0  0  0  0  0
   -0.5941   -1.2168    1.6454 S   0  0  0  0  0  0  0  0  0  0  0  0
   -2.7774    0.6136    0.6582 O   0  0  0  0  0  0  0  0  0  0  0  0
   -2.6688    1.5292    1.7454 C   0  0  0  0  0  0  0  0  0  0  0  0
   -2.6345   -1.5414   -0.4357 O   0  0  0  0  0  0  0  0  0  0  0  0
   -3.4861   -2.3343    0.3892 C   0  0  0  0  0  0  0  0  0  0  0  0
    4.5369   -3.1513   -0.3813 H   0  0  0  0  0  0  0  0  0  0  0  0
    4.3312   -1.8418    0.7961 H   0  0  0  0  0  0  0  0  0  0  0  0
    4.2290   -3.5254    1.3234 H   0  0  0  0  0  0  0  0  0  0  0  0
    1.9550   -2.4802    1.1301 H   0  0  0  0  0  0  0  0  0  0  0  0
    2.1502   -3.8380   -0.0188 H   0  0  0  0  0  0  0  0  0  0  0  0
    1.5211   -0.7164   -2.7857 H   0  0  0  0  0  0  0  0  0  0  0  0
    2.5652    0.6266   -2.2376 H   0  0  0  0  0  0  0  0  0  0  0  0
    1.5884    2.5319    1.6566 H   0  0  0  0  0  0  0  0  0  0  0  0
    2.8125    3.4898    0.7674 H   0  0  0  0  0  0  0  0  0  0  0  0
    1.0179    5.0682    0.0268 H   0  0  0  0  0  0  0  0  0  0  0  0
   -0.1827    4.1338    0.9340 H   0  0  0  0  0  0  0  0  0  0  0  0
    1.0992    4.9913    1.7940 H   0  0  0  0  0  0  0  0  0  0  0  0
   -1.9024    1.1944    2.4462 H   0  0  0  0  0  0  0  0  0  0  0  0
   -3.6445    1.5438    2.2270 H   0  0  0  0  0  0  0  0  0  0  0  0
   -2.4141    2.5158    1.3631 H   0  0  0  0  0  0  0  0  0  0  0  0
   -4.3477   -1.7484    0.7086 H   0  0  0  0  0  0  0  0  0  0  0  0
   -2.9354   -2.6898    1.2635 H   0  0  0  0  0  0  0  0  0  0  0  0
   -3.8000   -3.1724   -0.2281 H   0  0  0  0  0  0  0  0  0  0  0  0
  1  2  1  0  0  0  0
  2  3  1  0  0  0  0
  3  4  4  0  0  0  0
  4  5  2  0  0  0  0
  4  6  1  0  0  0  0
  6  7  1  0  0  0  0
  7  8  1  0  0  0  0
  7  9  1  0  0  0  0
  9 10  2  0  0  0  0
  9 11  4  0  0  0  0
 11 12  1  0  0  0  0
 12 13  1  0  0  0  0
  7 14  1  0  0  0  0
 14 15  1  0  0  0  0
 15 16  2  0  0  0  0
 15 17  1  0  0  0  0
 17 18  1  0  0  0  0
 15 19  1  0  0  0  0
 19 20  1  0  0  0  0
  1 21  1  0  0  0  0
  1 22  1  0  0  0  0
  1 23  1  0  0  0  0
  2 24  1  0  0  0  0
  2 25  1  0  0  0  0
  6 26  1  0  0  0  0
  6 27  1  0  0  0  0
 12 28  1  0  0  0  0
 12 29  1  0  0  0  0
 13 30  1  0  0  0  0
 13 31  1  0  0  0  0
 13 32  1  0  0  0  0
 18 33  1  0  0  0  0
 18 34  1  0  0  0  0
 18 35  1  0  0  0  0
 20 36  1  0  0  0  0
 20 37  1  0  0  0  0
 20 38  1  0  0  0  0
M  END
