 xtb: 6.7.1 (edcfbbe)
          04092514013D

 41 40  0     0  0            999 V2000
    4.3837   -0.0449   -2.2156 C   0  0  0  0  0  0  0  0  0  0  0  0
    4.5104   -0.3796   -0.7428 C   0  0  0  0  0  0  0  0  0  0  0  0
    3.2319   -0.6288   -0.1342 O   0  0  0  0  0  0  0  0  0  0  0  0
    2.2232    0.5459    0.2585 P   0  0  0  0  0  0  0  0  0  0  0  0
    3.0670    2.2367    0.7690 S   0  0  0  0  0  0  0  0  0  0  0  0
    1.3246   -0.1486    1.3648 O   0  0  0  0  0  0  0  0  0  0  0  0
    1.6431   -0.0670    2.7685 C   0  0  0  0  0  0  0  0  0  0  0  0
    2.8394   -0.9201    3.1360 C   0  0  0  0  0  0  0  0  0  0  0  0
    0.8198    0.6820   -1.3142 S   0  0  0  0  0  0  0  0  0  0  0  0
    0.3566   -1.0550   -1.5747 C   0  0  0  0  0  0  0  0  0  0  0  0
   -0.6889   -1.7804   -0.2740 S   0  0  0  0  0  0  0  0  0  0  0  0
   -2.2569   -0.3844   -0.2884 P   0  0  0  0  0  0  0  0  0  0  0  0
   -2.7965    0.3863   -2.0129 S   0  0  0  0  0  0  0  0  0  0  0  0
   -1.7676    0.6189    0.8363 O   0  0  0  0  0  0  0  0  0  0  0  0
   -2.3857    1.9095    1.0439 C   0  0  0  0  0  0  0  0  0  0  0  0
   -1.4896    3.0108    0.5128 C   0  0  0  0  0  0  0  0  0  0  0  0
   -3.4343   -1.1364    0.4767 O   0  0  0  0  0  0  0  0  0  0  0  0
   -4.3446   -2.0451   -0.1783 C   0  0  0  0  0  0  0  0  0  0  0  0
   -5.5884   -2.1674    0.6806 C   0  0  0  0  0  0  0  0  0  0  0  0
    5.3757    0.0490   -2.6464 H   0  0  0  0  0  0  0  0  0  0  0  0
    3.8403   -0.8263   -2.7403 H   0  0  0  0  0  0  0  0  0  0  0  0
    3.8540    0.8988   -2.3404 H   0  0  0  0  0  0  0  0  0  0  0  0
    4.9993    0.4398   -0.2056 H   0  0  0  0  0  0  0  0  0  0  0  0
    5.0644   -1.3067   -0.5874 H   0  0  0  0  0  0  0  0  0  0  0  0
    1.8268    0.9830    3.0203 H   0  0  0  0  0  0  0  0  0  0  0  0
    0.7331   -0.4133    3.2608 H   0  0  0  0  0  0  0  0  0  0  0  0
    2.9596   -0.9156    4.2153 H   0  0  0  0  0  0  0  0  0  0  0  0
    2.6938   -1.9410    2.7930 H   0  0  0  0  0  0  0  0  0  0  0  0
    3.7418   -0.5165    2.6795 H   0  0  0  0  0  0  0  0  0  0  0  0
    1.2457   -1.6780   -1.6260 H   0  0  0  0  0  0  0  0  0  0  0  0
   -0.1881   -1.0567   -2.5182 H   0  0  0  0  0  0  0  0  0  0  0  0
   -3.3609    1.9289    0.5490 H   0  0  0  0  0  0  0  0  0  0  0  0
   -2.5209    1.9887    2.1239 H   0  0  0  0  0  0  0  0  0  0  0  0
   -1.9155    3.9762    0.7664 H   0  0  0  0  0  0  0  0  0  0  0  0
   -0.4963    2.9325    0.9503 H   0  0  0  0  0  0  0  0  0  0  0  0
   -1.3968    2.9339   -0.5689 H   0  0  0  0  0  0  0  0  0  0  0  0
   -4.5799   -1.6480   -1.1714 H   0  0  0  0  0  0  0  0  0  0  0  0
   -3.8421   -3.0095   -0.2863 H   0  0  0  0  0  0  0  0  0  0  0  0
   -5.3216   -2.5203    1.6727 H   0  0  0  0  0  0  0  0  0  0  0  0
   -6.0822   -1.2040    0.7708 H   0  0  0  0  0  0  0  0  0  0  0  0
   -6.2695   -2.8754    0.2193 H   0  0  0  0  0  0  0  0  0  0  0  0
  1  2  1  0  0  0  0
  2  3  1  0  0  0  0
  3  4  2  0  0  0  0
  4  5  2  0  0  0  0
  4  6  2  0  0  0  0
  6  7  1  0  0  0  0
  7  8  1  0  0  0  0
  4  9  1  0  0  0  0
  9 10  1  0  0  0  0
 10 11  1  0  0  0  0
 11 12  1  0  0  0  0
 12 13  2  0  0  0  0
 12 14  2  0  0  0  0
 14 15  1  0  0  0  0
 15 16  1  0  0  0  0
 12 17  2  0  0  0  0
 17 18  1  0  0  0  0
 18 19  1  0  0  0  0
  1 20  1  0  0  0  0
  1 21  1  0  0  0  0
  1 22  1  0  0  0  0
  2 23  1  0  0  0  0
  2 24  1  0  0  0  0
  7 25  1  0  0  0  0
  7 26  1  0  0  0  0
  8 27  1  0  0  0  0
  8 28  1  0  0  0  0
  8 29  1  0  0  0  0
 10 30  1  0  0  0  0
 10 31  1  0  0  0  0
 15 32  1  0  0  0  0
 15 33  1  0  0  0  0
 16 34  1  0  0  0  0
 16 35  1  0  0  0  0
 16 36  1  0  0  0  0
 18 37  1  0  0  0  0
 18 38  1  0  0  0  0
 19 39  1  0  0  0  0
 19 40  1  0  0  0  0
 19 41  1  0  0  0  0
M  END
