 xtb: 6.7.1 (edcfbbe)
          04032520273D

 10  9  0     0  0            999 V2000
    1.8637    0.2867   -0.0050 C   0  0  0  0  0  0  0  0  0  0  0  0
    0.5745   -0.5222    0.0112 C   0  0  0  0  0  0  0  0  0  0  0  0
   -0.6547    0.3223   -0.0131 C   0  0  0  0  0  0  0  0  0  0  0  0
   -1.7885   -0.0976    0.0078 O   0  0  0  0  0  0  0  0  0  0  0  0
    2.7222   -0.3782    0.0127 H   0  0  0  0  0  0  0  0  0  0  0  0
    1.9171    0.9395    0.8624 H   0  0  0  0  0  0  0  0  0  0  0  0
    1.9209    0.8976   -0.9021 H   0  0  0  0  0  0  0  0  0  0  0  0
    0.5268   -1.1976   -0.8475 H   0  0  0  0  0  0  0  0  0  0  0  0
    0.5226   -1.1581    0.8990 H   0  0  0  0  0  0  0  0  0  0  0  0
   -0.4738    1.4118   -0.0653 H   0  0  0  0  0  0  0  0  0  0  0  0
  1  2  1  0  0  0  0
  2  3  1  0  0  0  0
  3  4  2  0  0  0  0
  1  5  1  0  0  0  0
  1  6  1  0  0  0  0
  1  7  1  0  0  0  0
  2  8  1  0  0  0  0
  2  9  1  0  0  0  0
  3 10  1  0  0  0  0
M  END
