 xtb: 6.7.1 (edcfbbe)
          04092505213D

 41 40  0     0  0            999 V2000
    4.8319   -0.7995   -1.3930 C   0  0  0  0  0  0  0  0  0  0  0  0
    4.3287    0.6223   -1.2550 C   0  0  0  0  0  0  0  0  0  0  0  0
    3.2609    0.7197   -0.2958 O   0  0  0  0  0  0  0  0  0  0  0  0
    1.8281    0.0972   -0.5774 P   0  0  0  0  0  0  0  0  0  0  0  0
    1.2232    0.3324   -2.4279 S   0  0  0  0  0  0  0  0  0  0  0  0
    0.9249    0.8231    0.5072 O   0  0  0  0  0  0  0  0  0  0  0  0
    1.4283    1.5290    1.6696 C   0  0  0  0  0  0  0  0  0  0  0  0
    1.9088    0.5843    2.7505 C   0  0  0  0  0  0  0  0  0  0  0  0
    1.9857   -1.9017    0.1332 S   0  0  0  0  0  0  0  0  0  0  0  0
    0.2567   -2.1656    0.6421 C   0  0  0  0  0  0  0  0  0  0  0  0
   -0.9729   -1.6120   -0.5754 S   0  0  0  0  0  0  0  0  0  0  0  0
   -1.8537    0.1468    0.2730 P   0  0  0  0  0  0  0  0  0  0  0  0
   -1.6804    1.8808   -0.6426 S   0  0  0  0  0  0  0  0  0  0  0  0
   -1.4013    0.0303    1.7882 O   0  0  0  0  0  0  0  0  0  0  0  0
   -2.2775    0.3290    2.9025 C   0  0  0  0  0  0  0  0  0  0  0  0
   -2.6293    1.7997    2.9708 C   0  0  0  0  0  0  0  0  0  0  0  0
   -3.3867   -0.2902    0.3813 O   0  0  0  0  0  0  0  0  0  0  0  0
   -4.3165   -0.0604   -0.6845 C   0  0  0  0  0  0  0  0  0  0  0  0
   -4.0266   -0.9409   -1.8830 C   0  0  0  0  0  0  0  0  0  0  0  0
    5.1094   -1.2018   -0.4222 H   0  0  0  0  0  0  0  0  0  0  0  0
    4.0512   -1.4268   -1.8225 H   0  0  0  0  0  0  0  0  0  0  0  0
    5.6948   -0.8127   -2.0508 H   0  0  0  0  0  0  0  0  0  0  0  0
    3.9654    0.9986   -2.2168 H   0  0  0  0  0  0  0  0  0  0  0  0
    5.0964    1.2886   -0.8593 H   0  0  0  0  0  0  0  0  0  0  0  0
    2.2268    2.1971    1.3442 H   0  0  0  0  0  0  0  0  0  0  0  0
    0.5673    2.1178    1.9916 H   0  0  0  0  0  0  0  0  0  0  0  0
    2.7405   -0.0141    2.3852 H   0  0  0  0  0  0  0  0  0  0  0  0
    2.2398    1.1692    3.6031 H   0  0  0  0  0  0  0  0  0  0  0  0
    1.1045   -0.0759    3.0644 H   0  0  0  0  0  0  0  0  0  0  0  0
    0.0708   -1.6650    1.5875 H   0  0  0  0  0  0  0  0  0  0  0  0
    0.1404   -3.2429    0.7324 H   0  0  0  0  0  0  0  0  0  0  0  0
   -3.1758   -0.2833    2.8103 H   0  0  0  0  0  0  0  0  0  0  0  0
   -1.6986    0.0152    3.7730 H   0  0  0  0  0  0  0  0  0  0  0  0
   -3.1453    2.1021    2.0604 H   0  0  0  0  0  0  0  0  0  0  0  0
   -3.2779    1.9754    3.8233 H   0  0  0  0  0  0  0  0  0  0  0  0
   -1.7323    2.4057    3.0717 H   0  0  0  0  0  0  0  0  0  0  0  0
   -5.2885   -0.2848   -0.2436 H   0  0  0  0  0  0  0  0  0  0  0  0
   -4.2667    0.9971   -0.9661 H   0  0  0  0  0  0  0  0  0  0  0  0
   -3.0517   -0.6835   -2.3015 H   0  0  0  0  0  0  0  0  0  0  0  0
   -4.0127   -1.9883   -1.5931 H   0  0  0  0  0  0  0  0  0  0  0  0
   -4.7851   -0.7829   -2.6427 H   0  0  0  0  0  0  0  0  0  0  0  0
  1  2  1  0  0  0  0
  2  3  1  0  0  0  0
  3  4  2  0  0  0  0
  4  5  2  0  0  0  0
  4  6  2  0  0  0  0
  6  7  1  0  0  0  0
  7  8  1  0  0  0  0
  4  9  1  0  0  0  0
  9 10  1  0  0  0  0
 10 11  1  0  0  0  0
 11 12  1  0  0  0  0
 12 13  2  0  0  0  0
 12 14  2  0  0  0  0
 14 15  1  0  0  0  0
 15 16  1  0  0  0  0
 12 17  1  0  0  0  0
 17 18  1  0  0  0  0
 18 19  1  0  0  0  0
  1 20  1  0  0  0  0
  1 21  1  0  0  0  0
  1 22  1  0  0  0  0
  2 23  1  0  0  0  0
  2 24  1  0  0  0  0
  7 25  1  0  0  0  0
  7 26  1  0  0  0  0
  8 27  1  0  0  0  0
  8 28  1  0  0  0  0
  8 29  1  0  0  0  0
 10 30  1  0  0  0  0
 10 31  1  0  0  0  0
 15 32  1  0  0  0  0
 15 33  1  0  0  0  0
 16 34  1  0  0  0  0
 16 35  1  0  0  0  0
 16 36  1  0  0  0  0
 18 37  1  0  0  0  0
 18 38  1  0  0  0  0
 19 39  1  0  0  0  0
 19 40  1  0  0  0  0
 19 41  1  0  0  0  0
M  END
