 xtb: 6.7.1 (edcfbbe)
          04032519443D

  9  8  0     0  0            999 V2000
   -1.7109    0.3747   -0.0349 C   0  0  0  0  0  0  0  0  0  0  0  0
   -0.6033   -0.6558    0.0541 C   0  0  0  0  0  0  0  0  0  0  0  0
    1.0640    0.1034   -0.0420 S   0  0  0  0  0  0  0  0  0  0  0  0
   -2.6753   -0.1279   -0.0450 H   0  0  0  0  0  0  0  0  0  0  0  0
   -1.6784    1.0498    0.8170 H   0  0  0  0  0  0  0  0  0  0  0  0
   -1.6116    0.9603   -0.9460 H   0  0  0  0  0  0  0  0  0  0  0  0
   -0.6330   -1.3437   -0.7903 H   0  0  0  0  0  0  0  0  0  0  0  0
   -0.6499   -1.2253    0.9813 H   0  0  0  0  0  0  0  0  0  0  0  0
    0.9423    0.8595    1.0422 H   0  0  0  0  0  0  0  0  0  0  0  0
  1  2  1  0  0  0  0
  2  3  1  0  0  0  0
  1  4  1  0  0  0  0
  1  5  1  0  0  0  0
  1  6  1  0  0  0  0
  2  7  1  0  0  0  0
  2  8  1  0  0  0  0
  3  9  1  0  0  0  0
M  END
