 xtb: 6.7.1 (edcfbbe)
          04092505213D

 41 40  0     0  0            999 V2000
    3.3033   -3.0049   -0.8195 C   0  0  0  0  0  0  0  0  0  0  0  0
    3.8368   -1.8912   -1.6932 C   0  0  0  0  0  0  0  0  0  0  0  0
    3.9797   -0.6378   -0.9793 O   0  0  0  0  0  0  0  0  0  0  0  0
    2.8652    0.1122   -0.1660 P   0  0  0  0  0  0  0  0  0  0  0  0
    3.2975    2.0020    0.1061 S   0  0  0  0  0  0  0  0  0  0  0  0
    2.8062   -0.7378    1.1791 O   0  0  0  0  0  0  0  0  0  0  0  0
    2.1302   -0.3032    2.3723 C   0  0  0  0  0  0  0  0  0  0  0  0
    0.9224   -1.1800    2.6403 C   0  0  0  0  0  0  0  0  0  0  0  0
    1.0604   -0.2617   -1.2589 S   0  0  0  0  0  0  0  0  0  0  0  0
    0.2864    1.3556   -1.0545 C   0  0  0  0  0  0  0  0  0  0  0  0
   -0.6239    1.5135    0.5060 S   0  0  0  0  0  0  0  0  0  0  0  0
   -2.2452    0.2822   -0.0652 P   0  0  0  0  0  0  0  0  0  0  0  0
   -2.8848    0.5089   -1.9100 S   0  0  0  0  0  0  0  0  0  0  0  0
   -3.3241    0.5407    1.0681 O   0  0  0  0  0  0  0  0  0  0  0  0
   -4.1551    1.7187    1.0706 C   0  0  0  0  0  0  0  0  0  0  0  0
   -5.3509    1.4426    1.9596 C   0  0  0  0  0  0  0  0  0  0  0  0
   -1.7014   -1.1513    0.3174 O   0  0  0  0  0  0  0  0  0  0  0  0
   -2.2181   -2.3542   -0.2920 C   0  0  0  0  0  0  0  0  0  0  0  0
   -3.6398   -2.6299    0.1477 C   0  0  0  0  0  0  0  0  0  0  0  0
    3.3089   -3.9322   -1.3840 H   0  0  0  0  0  0  0  0  0  0  0  0
    3.9216   -3.1170    0.0672 H   0  0  0  0  0  0  0  0  0  0  0  0
    2.2826   -2.7825   -0.5142 H   0  0  0  0  0  0  0  0  0  0  0  0
    3.1813   -1.7196   -2.5507 H   0  0  0  0  0  0  0  0  0  0  0  0
    4.8518   -2.0959   -2.0368 H   0  0  0  0  0  0  0  0  0  0  0  0
    2.8680   -0.3970    3.1721 H   0  0  0  0  0  0  0  0  0  0  0  0
    1.8487    0.7504    2.2699 H   0  0  0  0  0  0  0  0  0  0  0  0
    0.1907   -1.0841    1.8418 H   0  0  0  0  0  0  0  0  0  0  0  0
    1.2283   -2.2196    2.7150 H   0  0  0  0  0  0  0  0  0  0  0  0
    0.4620   -0.8719    3.5734 H   0  0  0  0  0  0  0  0  0  0  0  0
   -0.4071    1.4850   -1.8859 H   0  0  0  0  0  0  0  0  0  0  0  0
    1.0581    2.1271   -1.0491 H   0  0  0  0  0  0  0  0  0  0  0  0
   -3.5607    2.5549    1.4487 H   0  0  0  0  0  0  0  0  0  0  0  0
   -4.4606    1.9341    0.0410 H   0  0  0  0  0  0  0  0  0  0  0  0
   -5.0153    1.1842    2.9595 H   0  0  0  0  0  0  0  0  0  0  0  0
   -5.9720    2.3311    2.0065 H   0  0  0  0  0  0  0  0  0  0  0  0
   -5.9346    0.6185    1.5593 H   0  0  0  0  0  0  0  0  0  0  0  0
   -2.1591   -2.2443   -1.3793 H   0  0  0  0  0  0  0  0  0  0  0  0
   -1.5300   -3.1323    0.0399 H   0  0  0  0  0  0  0  0  0  0  0  0
   -3.6993   -2.6544    1.2325 H   0  0  0  0  0  0  0  0  0  0  0  0
   -4.2976   -1.8447   -0.2236 H   0  0  0  0  0  0  0  0  0  0  0  0
   -3.9651   -3.5832   -0.2566 H   0  0  0  0  0  0  0  0  0  0  0  0
  1  2  1  0  0  0  0
  2  3  1  0  0  0  0
  3  4  2  0  0  0  0
  4  5  2  0  0  0  0
  4  6  2  0  0  0  0
  6  7  1  0  0  0  0
  7  8  1  0  0  0  0
  4  9  1  0  0  0  0
  9 10  1  0  0  0  0
 10 11  1  0  0  0  0
 11 12  1  0  0  0  0
 12 13  2  0  0  0  0
 12 14  2  0  0  0  0
 14 15  1  0  0  0  0
 15 16  1  0  0  0  0
 12 17  2  0  0  0  0
 17 18  1  0  0  0  0
 18 19  1  0  0  0  0
  1 20  1  0  0  0  0
  1 21  1  0  0  0  0
  1 22  1  0  0  0  0
  2 23  1  0  0  0  0
  2 24  1  0  0  0  0
  7 25  1  0  0  0  0
  7 26  1  0  0  0  0
  8 27  1  0  0  0  0
  8 28  1  0  0  0  0
  8 29  1  0  0  0  0
 10 30  1  0  0  0  0
 10 31  1  0  0  0  0
 15 32  1  0  0  0  0
 15 33  1  0  0  0  0
 16 34  1  0  0  0  0
 16 35  1  0  0  0  0
 16 36  1  0  0  0  0
 18 37  1  0  0  0  0
 18 38  1  0  0  0  0
 19 39  1  0  0  0  0
 19 40  1  0  0  0  0
 19 41  1  0  0  0  0
M  END
