 xtb: 6.7.1 (edcfbbe)
          04092505213D

 41 40  0     0  0            999 V2000
    4.9398    1.1790    0.5888 C   0  0  0  0  0  0  0  0  0  0  0  0
    3.6935    1.6181   -0.1488 C   0  0  0  0  0  0  0  0  0  0  0  0
    2.9717    0.4820   -0.6744 O   0  0  0  0  0  0  0  0  0  0  0  0
    2.1845   -0.5054    0.2730 P   0  0  0  0  0  0  0  0  0  0  0  0
    1.5116    0.2723    1.9450 S   0  0  0  0  0  0  0  0  0  0  0  0
    3.2199   -1.7002    0.4398 O   0  0  0  0  0  0  0  0  0  0  0  0
    2.8841   -2.9265    1.1179 C   0  0  0  0  0  0  0  0  0  0  0  0
    3.2706   -2.8644    2.5835 C   0  0  0  0  0  0  0  0  0  0  0  0
    0.7745   -1.3367   -1.0920 S   0  0  0  0  0  0  0  0  0  0  0  0
    0.2502    0.1951   -1.9152 C   0  0  0  0  0  0  0  0  0  0  0  0
   -0.5500    1.3809   -0.8158 S   0  0  0  0  0  0  0  0  0  0  0  0
   -2.3628    0.2754   -0.5522 P   0  0  0  0  0  0  0  0  0  0  0  0
   -2.9127   -0.7952   -2.0928 S   0  0  0  0  0  0  0  0  0  0  0  0
   -3.3588    1.3763    0.0095 O   0  0  0  0  0  0  0  0  0  0  0  0
   -3.5869    2.6698   -0.5820 C   0  0  0  0  0  0  0  0  0  0  0  0
   -4.0033    2.5853   -2.0352 C   0  0  0  0  0  0  0  0  0  0  0  0
   -2.1709   -0.6666    0.6957 O   0  0  0  0  0  0  0  0  0  0  0  0
   -1.9603   -0.1949    2.0479 C   0  0  0  0  0  0  0  0  0  0  0  0
   -3.2595   -0.2240    2.8246 C   0  0  0  0  0  0  0  0  0  0  0  0
    4.6589    0.5987    1.4669 H   0  0  0  0  0  0  0  0  0  0  0  0
    5.5601    0.5617   -0.0553 H   0  0  0  0  0  0  0  0  0  0  0  0
    5.5000    2.0531    0.9054 H   0  0  0  0  0  0  0  0  0  0  0  0
    3.9289    2.2128   -1.0320 H   0  0  0  0  0  0  0  0  0  0  0  0
    3.0263    2.1792    0.5135 H   0  0  0  0  0  0  0  0  0  0  0  0
    1.8140   -3.1236    0.9975 H   0  0  0  0  0  0  0  0  0  0  0  0
    3.4518   -3.6951    0.5898 H   0  0  0  0  0  0  0  0  0  0  0  0
    4.3326   -2.6565    2.6795 H   0  0  0  0  0  0  0  0  0  0  0  0
    2.7127   -2.0798    3.0899 H   0  0  0  0  0  0  0  0  0  0  0  0
    3.0475   -3.8174    3.0523 H   0  0  0  0  0  0  0  0  0  0  0  0
   -0.4626   -0.1192   -2.6802 H   0  0  0  0  0  0  0  0  0  0  0  0
    1.1140    0.6894   -2.3511 H   0  0  0  0  0  0  0  0  0  0  0  0
   -4.3789    3.0971    0.0355 H   0  0  0  0  0  0  0  0  0  0  0  0
   -2.6729    3.2605   -0.4740 H   0  0  0  0  0  0  0  0  0  0  0  0
   -4.8694    1.9369   -2.1443 H   0  0  0  0  0  0  0  0  0  0  0  0
   -4.2483    3.5783   -2.3978 H   0  0  0  0  0  0  0  0  0  0  0  0
   -3.1923    2.1768   -2.6364 H   0  0  0  0  0  0  0  0  0  0  0  0
   -1.2245   -0.8804    2.4729 H   0  0  0  0  0  0  0  0  0  0  0  0
   -1.5313    0.8103    2.0193 H   0  0  0  0  0  0  0  0  0  0  0  0
   -3.0652    0.0773    3.8490 H   0  0  0  0  0  0  0  0  0  0  0  0
   -3.9801    0.4558    2.3775 H   0  0  0  0  0  0  0  0  0  0  0  0
   -3.6731   -1.2288    2.8157 H   0  0  0  0  0  0  0  0  0  0  0  0
  1  2  1  0  0  0  0
  2  3  1  0  0  0  0
  3  4  2  0  0  0  0
  4  5  2  0  0  0  0
  4  6  2  0  0  0  0
  6  7  1  0  0  0  0
  7  8  1  0  0  0  0
  4  9  1  0  0  0  0
  9 10  1  0  0  0  0
 10 11  1  0  0  0  0
 11 12  1  0  0  0  0
 12 13  2  0  0  0  0
 12 14  2  0  0  0  0
 14 15  1  0  0  0  0
 15 16  1  0  0  0  0
 12 17  2  0  0  0  0
 17 18  1  0  0  0  0
 18 19  1  0  0  0  0
  1 20  1  0  0  0  0
  1 21  1  0  0  0  0
  1 22  1  0  0  0  0
  2 23  1  0  0  0  0
  2 24  1  0  0  0  0
  7 25  1  0  0  0  0
  7 26  1  0  0  0  0
  8 27  1  0  0  0  0
  8 28  1  0  0  0  0
  8 29  1  0  0  0  0
 10 30  1  0  0  0  0
 10 31  1  0  0  0  0
 15 32  1  0  0  0  0
 15 33  1  0  0  0  0
 16 34  1  0  0  0  0
 16 35  1  0  0  0  0
 16 36  1  0  0  0  0
 18 37  1  0  0  0  0
 18 38  1  0  0  0  0
 19 39  1  0  0  0  0
 19 40  1  0  0  0  0
 19 41  1  0  0  0  0
M  END
