41
 xtb: 6.7.1 (edcfbbe)
C            1.02400876074216       -0.36692104572288        3.82308366895315
C            2.09378582453582       -0.61619320994089        2.79213544329272
O            1.62597365396963       -0.01702863161389        1.52925146795270
P            2.38171774475680       -0.32535136143755        0.14831356001201
S            2.69747452952156       -2.19625508950759       -0.29081161971163
O            3.67834592473098        0.61997978255555        0.29692554811054
C            4.77799148076477        0.54147469118956       -0.67630492729328
C            5.79210602428334        1.58483961280709       -0.28613053258373
S            1.21660798001834        0.77894916485665       -1.23189686470850
C            0.07269678103808       -0.52004155252903       -1.84740299151020
S           -1.16620144290689       -1.16563915395343       -0.66024793143991
P           -2.56634950077433        0.43752325972219       -0.63685297940529
S           -3.12431596773824        1.10670778307147       -2.37464919901501
O           -1.94071855769742        1.61393124051859        0.25260976266010
C           -1.48424530036915        1.39849789902461        1.63971579942898
C           -2.45135202245990        2.04583586336372        2.59784982951570
O           -3.67546024743850       -0.18885154831502        0.34378844069737
C           -4.89650478585236       -0.85814271604971       -0.13130656628906
C           -4.63411330372910       -2.28310863589276       -0.54829971691646
H            0.83829710923776        0.70402847820349        3.94847827428103
H            0.08972137981897       -0.86292439078020        3.54417172391423
H            1.35784479298545       -0.77356193900031        4.78273319456654
H            2.25751427356037       -1.68606569391555        2.62920850853676
H            3.04191588128310       -0.13842099348505        3.05803564946289
H            5.19509748335912       -0.46905596955218       -0.63693840222944
H            4.37052276606359        0.72580263054208       -1.67628653766573
H            6.62851281881554        1.54481937983147       -0.99049358724348
H            5.35761179264676        2.58787856325912       -0.32156271119585
H            6.17833908783197        1.39632574532434        0.71975158848817
H            0.65544427861488       -1.38639468329354       -2.17277504334001
H           -0.43830425050248       -0.08289420262066       -2.71137198101113
H           -1.37777760475914        0.32623318431518        1.82660057404844
H           -0.49661740161300        1.86220662144601        1.68175984235467
H           -3.43694641578504        1.57544632684510        2.54609155286122
H           -2.06484770736646        1.92961478039872        3.61599601523877
H           -2.55213037645196        3.11461300137461        2.38883421664814
H           -5.56426558090715       -0.80756765494828        0.73087900680644
H           -5.31766601574704       -0.26161269818175       -0.94585419023205
H           -4.14937290040091       -2.84479014667640        0.25556479777704
H           -5.59398688886554       -2.76071972726884       -0.77082108826406
H           -4.01311048551064       -2.33373811084250       -1.44708443395785
