 xtb: 6.7.1 (edcfbbe)
          04092505203D

 41 40  0     0  0            999 V2000
    3.0943   -0.6024   -3.0732 C   0  0  0  0  0  0  0  0  0  0  0  0
    3.7342   -1.2880   -1.8843 C   0  0  0  0  0  0  0  0  0  0  0  0
    3.4258   -0.6532   -0.6317 O   0  0  0  0  0  0  0  0  0  0  0  0
    2.0006   -0.0912   -0.1894 P   0  0  0  0  0  0  0  0  0  0  0  0
    1.6435    1.7134   -0.8829 S   0  0  0  0  0  0  0  0  0  0  0  0
    2.1070   -0.2031    1.3884 O   0  0  0  0  0  0  0  0  0  0  0  0
    2.5585    0.8964    2.2002 C   0  0  0  0  0  0  0  0  0  0  0  0
    4.0441    1.1272    2.0329 C   0  0  0  0  0  0  0  0  0  0  0  0
    0.7546   -1.7621   -0.6048 S   0  0  0  0  0  0  0  0  0  0  0  0
   -0.2956   -1.9599    0.8732 C   0  0  0  0  0  0  0  0  0  0  0  0
   -2.0490   -1.6744    0.5454 S   0  0  0  0  0  0  0  0  0  0  0  0
   -1.8933    0.4309    0.3051 P   0  0  0  0  0  0  0  0  0  0  0  0
   -0.8789    1.2984    1.7397 S   0  0  0  0  0  0  0  0  0  0  0  0
   -3.3827    0.9367    0.1070 O   0  0  0  0  0  0  0  0  0  0  0  0
   -4.2490    1.2646    1.2098 C   0  0  0  0  0  0  0  0  0  0  0  0
   -4.5930    0.0545    2.0529 C   0  0  0  0  0  0  0  0  0  0  0  0
   -1.2533    0.6784   -1.1127 O   0  0  0  0  0  0  0  0  0  0  0  0
   -1.9294    0.6247   -2.3932 C   0  0  0  0  0  0  0  0  0  0  0  0
   -2.4149   -0.7680   -2.7359 C   0  0  0  0  0  0  0  0  0  0  0  0
    3.3996   -1.1015   -3.9872 H   0  0  0  0  0  0  0  0  0  0  0  0
    2.0081   -0.6514   -2.9859 H   0  0  0  0  0  0  0  0  0  0  0  0
    3.3888    0.4439   -3.1144 H   0  0  0  0  0  0  0  0  0  0  0  0
    4.8236   -1.2449   -1.9368 H   0  0  0  0  0  0  0  0  0  0  0  0
    3.4061   -2.3295   -1.8196 H   0  0  0  0  0  0  0  0  0  0  0  0
    1.9874    1.7908    1.9284 H   0  0  0  0  0  0  0  0  0  0  0  0
    2.2970    0.5992    3.2169 H   0  0  0  0  0  0  0  0  0  0  0  0
    4.2522    1.4270    1.0064 H   0  0  0  0  0  0  0  0  0  0  0  0
    4.3631    1.9160    2.7067 H   0  0  0  0  0  0  0  0  0  0  0  0
    4.5920    0.2145    2.2509 H   0  0  0  0  0  0  0  0  0  0  0  0
    0.0469   -1.2746    1.6479 H   0  0  0  0  0  0  0  0  0  0  0  0
   -0.2052   -2.9961    1.1874 H   0  0  0  0  0  0  0  0  0  0  0  0
   -3.7578    2.0308    1.8175 H   0  0  0  0  0  0  0  0  0  0  0  0
   -5.1319    1.6844    0.7256 H   0  0  0  0  0  0  0  0  0  0  0  0
   -3.7079   -0.2959    2.5812 H   0  0  0  0  0  0  0  0  0  0  0  0
   -5.3493    0.3313    2.7804 H   0  0  0  0  0  0  0  0  0  0  0  0
   -4.9703   -0.7503    1.4272 H   0  0  0  0  0  0  0  0  0  0  0  0
   -2.7548    1.3383   -2.3711 H   0  0  0  0  0  0  0  0  0  0  0  0
   -1.1594    0.9698   -3.0862 H   0  0  0  0  0  0  0  0  0  0  0  0
   -2.7907   -0.7652   -3.7543 H   0  0  0  0  0  0  0  0  0  0  0  0
   -1.5999   -1.4847   -2.6582 H   0  0  0  0  0  0  0  0  0  0  0  0
   -3.2153   -1.0680   -2.0628 H   0  0  0  0  0  0  0  0  0  0  0  0
  1  2  1  0  0  0  0
  2  3  1  0  0  0  0
  3  4  2  0  0  0  0
  4  5  2  0  0  0  0
  4  6  2  0  0  0  0
  6  7  1  0  0  0  0
  7  8  1  0  0  0  0
  4  9  1  0  0  0  0
  9 10  1  0  0  0  0
 10 11  1  0  0  0  0
 11 12  1  0  0  0  0
 12 13  2  0  0  0  0
 12 14  2  0  0  0  0
 14 15  1  0  0  0  0
 15 16  1  0  0  0  0
 12 17  2  0  0  0  0
 17 18  1  0  0  0  0
 18 19  1  0  0  0  0
  1 20  1  0  0  0  0
  1 21  1  0  0  0  0
  1 22  1  0  0  0  0
  2 23  1  0  0  0  0
  2 24  1  0  0  0  0
  7 25  1  0  0  0  0
  7 26  1  0  0  0  0
  8 27  1  0  0  0  0
  8 28  1  0  0  0  0
  8 29  1  0  0  0  0
 10 30  1  0  0  0  0
 10 31  1  0  0  0  0
 15 32  1  0  0  0  0
 15 33  1  0  0  0  0
 16 34  1  0  0  0  0
 16 35  1  0  0  0  0
 16 36  1  0  0  0  0
 18 37  1  0  0  0  0
 18 38  1  0  0  0  0
 19 39  1  0  0  0  0
 19 40  1  0  0  0  0
 19 41  1  0  0  0  0
M  END
