 xtb: 6.7.1 (edcfbbe)
          04092505203D

 41 40  0     0  0            999 V2000
    4.5894    1.1111   -1.8035 C   0  0  0  0  0  0  0  0  0  0  0  0
    4.5976    0.8554   -0.3104 C   0  0  0  0  0  0  0  0  0  0  0  0
    3.6799   -0.1874    0.0580 O   0  0  0  0  0  0  0  0  0  0  0  0
    2.1034   -0.0042   -0.0368 P   0  0  0  0  0  0  0  0  0  0  0  0
    1.4995    1.7775    0.5274 S   0  0  0  0  0  0  0  0  0  0  0  0
    1.5562   -1.2272    0.8087 O   0  0  0  0  0  0  0  0  0  0  0  0
    1.3461   -1.1478    2.2316 C   0  0  0  0  0  0  0  0  0  0  0  0
    2.6445   -0.9837    2.9903 C   0  0  0  0  0  0  0  0  0  0  0  0
    1.6916   -0.7110   -1.9793 S   0  0  0  0  0  0  0  0  0  0  0  0
   -0.0758   -1.1085   -1.8967 C   0  0  0  0  0  0  0  0  0  0  0  0
   -1.1584    0.3169   -1.5931 S   0  0  0  0  0  0  0  0  0  0  0  0
   -2.0312   -0.2592    0.2727 P   0  0  0  0  0  0  0  0  0  0  0  0
   -1.6923   -2.1020    0.8312 S   0  0  0  0  0  0  0  0  0  0  0  0
   -3.5688    0.1106    0.1047 O   0  0  0  0  0  0  0  0  0  0  0  0
   -4.4867   -0.7160   -0.6376 C   0  0  0  0  0  0  0  0  0  0  0  0
   -4.6870   -0.1927   -2.0466 C   0  0  0  0  0  0  0  0  0  0  0  0
   -1.5623    0.7948    1.3431 O   0  0  0  0  0  0  0  0  0  0  0  0
   -1.8466    2.2126    1.2198 C   0  0  0  0  0  0  0  0  0  0  0  0
   -3.0450    2.5907    2.0630 C   0  0  0  0  0  0  0  0  0  0  0  0
    4.7659    0.1859   -2.3463 H   0  0  0  0  0  0  0  0  0  0  0  0
    3.6222    1.5127   -2.1051 H   0  0  0  0  0  0  0  0  0  0  0  0
    5.3630    1.8307   -2.0513 H   0  0  0  0  0  0  0  0  0  0  0  0
    4.3275    1.7647    0.2371 H   0  0  0  0  0  0  0  0  0  0  0  0
    5.5652    0.4875    0.0328 H   0  0  0  0  0  0  0  0  0  0  0  0
    0.6645   -0.3140    2.4348 H   0  0  0  0  0  0  0  0  0  0  0  0
    0.8456   -2.0879    2.4712 H   0  0  0  0  0  0  0  0  0  0  0  0
    2.4462   -1.0516    4.0554 H   0  0  0  0  0  0  0  0  0  0  0  0
    3.3465   -1.7610    2.7002 H   0  0  0  0  0  0  0  0  0  0  0  0
    3.0822   -0.0105    2.7717 H   0  0  0  0  0  0  0  0  0  0  0  0
   -0.2541   -1.8555   -1.1182 H   0  0  0  0  0  0  0  0  0  0  0  0
   -0.3153   -1.5014   -2.8821 H   0  0  0  0  0  0  0  0  0  0  0  0
   -4.1143   -1.7455   -0.6386 H   0  0  0  0  0  0  0  0  0  0  0  0
   -5.4164   -0.6724   -0.0669 H   0  0  0  0  0  0  0  0  0  0  0  0
   -5.4425   -0.7950   -2.5408 H   0  0  0  0  0  0  0  0  0  0  0  0
   -5.0181    0.8415   -2.0155 H   0  0  0  0  0  0  0  0  0  0  0  0
   -3.7618   -0.2457   -2.6146 H   0  0  0  0  0  0  0  0  0  0  0  0
   -0.9357    2.7065    1.5650 H   0  0  0  0  0  0  0  0  0  0  0  0
   -2.0042    2.4510    0.1646 H   0  0  0  0  0  0  0  0  0  0  0  0
   -3.9373    2.0893    1.6982 H   0  0  0  0  0  0  0  0  0  0  0  0
   -2.8766    2.3032    3.0972 H   0  0  0  0  0  0  0  0  0  0  0  0
   -3.1870    3.6653    2.0079 H   0  0  0  0  0  0  0  0  0  0  0  0
  1  2  1  0  0  0  0
  2  3  1  0  0  0  0
  3  4  2  0  0  0  0
  4  5  2  0  0  0  0
  4  6  2  0  0  0  0
  6  7  1  0  0  0  0
  7  8  1  0  0  0  0
  4  9  1  0  0  0  0
  9 10  1  0  0  0  0
 10 11  1  0  0  0  0
 11 12  1  0  0  0  0
 12 13  2  0  0  0  0
 12 14  2  0  0  0  0
 14 15  1  0  0  0  0
 15 16  1  0  0  0  0
 12 17  2  0  0  0  0
 17 18  1  0  0  0  0
 18 19  1  0  0  0  0
  1 20  1  0  0  0  0
  1 21  1  0  0  0  0
  1 22  1  0  0  0  0
  2 23  1  0  0  0  0
  2 24  1  0  0  0  0
  7 25  1  0  0  0  0
  7 26  1  0  0  0  0
  8 27  1  0  0  0  0
  8 28  1  0  0  0  0
  8 29  1  0  0  0  0
 10 30  1  0  0  0  0
 10 31  1  0  0  0  0
 15 32  1  0  0  0  0
 15 33  1  0  0  0  0
 16 34  1  0  0  0  0
 16 35  1  0  0  0  0
 16 36  1  0  0  0  0
 18 37  1  0  0  0  0
 18 38  1  0  0  0  0
 19 39  1  0  0  0  0
 19 40  1  0  0  0  0
 19 41  1  0  0  0  0
M  END
