 xtb: 6.7.1 (edcfbbe)
          04092507313D

 38 37  0     0  0            999 V2000
    4.1938   -3.7179   -1.0663 C   0  0  0  0  0  0  0  0  0  0  0  0
    3.1477   -2.9419   -1.8506 C   0  0  0  0  0  0  0  0  0  0  0  0
    2.8456   -1.6876   -1.2094 O   0  0  0  0  0  0  0  0  0  0  0  0
    1.9411   -1.6724   -0.2535 C   0  0  0  0  0  0  0  0  0  0  0  0
    1.3290   -2.6411    0.1376 O   0  0  0  0  0  0  0  0  0  0  0  0
    1.7159   -0.2638    0.2670 C   0  0  0  0  0  0  0  0  0  0  0  0
    0.8970    0.5155   -0.7682 C   0  0  0  0  0  0  0  0  0  0  0  0
    1.4999    0.6950   -1.6617 H   0  0  0  0  0  0  0  0  0  0  0  0
    0.4082    1.8353   -0.2033 C   0  0  0  0  0  0  0  0  0  0  0  0
   -0.7741    2.1053   -0.1043 O   0  0  0  0  0  0  0  0  0  0  0  0
    1.3829    2.6116    0.1631 O   0  0  0  0  0  0  0  0  0  0  0  0
    1.0462    3.8796    0.7736 C   0  0  0  0  0  0  0  0  0  0  0  0
    2.3372    4.5408    1.2103 C   0  0  0  0  0  0  0  0  0  0  0  0
   -0.5628   -0.4117   -1.3601 S   0  0  0  0  0  0  0  0  0  0  0  0
   -1.9258   -0.1466    0.2467 P   0  0  0  0  0  0  0  0  0  0  0  0
   -1.3353    0.1922    2.0948 S   0  0  0  0  0  0  0  0  0  0  0  0
   -3.1615    0.6803   -0.3011 O   0  0  0  0  0  0  0  0  0  0  0  0
   -3.5635    1.9743    0.1547 C   0  0  0  0  0  0  0  0  0  0  0  0
   -2.6796   -1.5586    0.1338 O   0  0  0  0  0  0  0  0  0  0  0  0
   -2.0645   -2.7560    0.6150 C   0  0  0  0  0  0  0  0  0  0  0  0
    4.4476   -4.6239   -1.6064 H   0  0  0  0  0  0  0  0  0  0  0  0
    5.0883   -3.1152   -0.9365 H   0  0  0  0  0  0  0  0  0  0  0  0
    3.8029   -3.9888   -0.0881 H   0  0  0  0  0  0  0  0  0  0  0  0
    2.2226   -3.5182   -1.9404 H   0  0  0  0  0  0  0  0  0  0  0  0
    3.5170   -2.6598   -2.8365 H   0  0  0  0  0  0  0  0  0  0  0  0
    2.6719    0.2387    0.4092 H   0  0  0  0  0  0  0  0  0  0  0  0
    1.1769   -0.3259    1.2144 H   0  0  0  0  0  0  0  0  0  0  0  0
    0.5087    4.4810    0.0350 H   0  0  0  0  0  0  0  0  0  0  0  0
    0.3776    3.6834    1.6172 H   0  0  0  0  0  0  0  0  0  0  0  0
    2.9908    4.6830    0.3552 H   0  0  0  0  0  0  0  0  0  0  0  0
    2.1109    5.5051    1.6526 H   0  0  0  0  0  0  0  0  0  0  0  0
    2.8450    3.9228    1.9442 H   0  0  0  0  0  0  0  0  0  0  0  0
   -3.1768    2.7300   -0.5263 H   0  0  0  0  0  0  0  0  0  0  0  0
   -3.1839    2.1585    1.1610 H   0  0  0  0  0  0  0  0  0  0  0  0
   -4.6512    1.9668    0.1534 H   0  0  0  0  0  0  0  0  0  0  0  0
   -1.9447   -2.7004    1.6983 H   0  0  0  0  0  0  0  0  0  0  0  0
   -1.0857   -2.9100    0.1562 H   0  0  0  0  0  0  0  0  0  0  0  0
   -2.7420   -3.5616    0.3460 H   0  0  0  0  0  0  0  0  0  0  0  0
  1  2  1  0  0  0  0
  2  3  1  0  0  0  0
  3  4  1  0  0  0  0
  4  5  2  0  0  0  0
  4  6  1  0  0  0  0
  6  7  1  0  0  0  0
  7  8  1  0  0  0  0
  7  9  1  0  0  0  0
  9 10  2  0  0  0  0
  9 11  4  0  0  0  0
 11 12  1  0  0  0  0
 12 13  1  0  0  0  0
  7 14  1  0  0  0  0
 14 15  1  0  0  0  0
 15 16  2  0  0  0  0
 15 17  2  0  0  0  0
 17 18  1  0  0  0  0
 15 19  1  0  0  0  0
 19 20  1  0  0  0  0
  1 21  1  0  0  0  0
  1 22  1  0  0  0  0
  1 23  1  0  0  0  0
  2 24  1  0  0  0  0
  2 25  1  0  0  0  0
  6 26  1  0  0  0  0
  6 27  1  0  0  0  0
 12 28  1  0  0  0  0
 12 29  1  0  0  0  0
 13 30  1  0  0  0  0
 13 31  1  0  0  0  0
 13 32  1  0  0  0  0
 18 33  1  0  0  0  0
 18 34  1  0  0  0  0
 18 35  1  0  0  0  0
 20 36  1  0  0  0  0
 20 37  1  0  0  0  0
 20 38  1  0  0  0  0
M  END
