 xtb: 6.7.1 (edcfbbe)
          04092505213D

 41 40  0     0  0            999 V2000
    3.3323    2.4213   -1.7001 C   0  0  0  0  0  0  0  0  0  0  0  0
    4.1856    1.9064   -0.5589 C   0  0  0  0  0  0  0  0  0  0  0  0
    3.8755    0.5405   -0.2369 O   0  0  0  0  0  0  0  0  0  0  0  0
    2.4706    0.1101    0.3726 P   0  0  0  0  0  0  0  0  0  0  0  0
    1.8122    1.3610    1.7404 S   0  0  0  0  0  0  0  0  0  0  0  0
    2.7804   -1.3625    0.8566 O   0  0  0  0  0  0  0  0  0  0  0  0
    2.9609   -1.7367    2.2407 C   0  0  0  0  0  0  0  0  0  0  0  0
    1.9133   -2.7607    2.6299 C   0  0  0  0  0  0  0  0  0  0  0  0
    1.2992   -0.3014   -1.3429 S   0  0  0  0  0  0  0  0  0  0  0  0
    0.1745   -1.5455   -0.6457 C   0  0  0  0  0  0  0  0  0  0  0  0
   -0.8193   -0.9443    0.7451 S   0  0  0  0  0  0  0  0  0  0  0  0
   -2.4187   -0.0321   -0.3345 P   0  0  0  0  0  0  0  0  0  0  0  0
   -2.5996   -0.6395   -2.1947 S   0  0  0  0  0  0  0  0  0  0  0  0
   -2.3544    1.5180   -0.0387 O   0  0  0  0  0  0  0  0  0  0  0  0
   -1.2459    2.3880   -0.3162 C   0  0  0  0  0  0  0  0  0  0  0  0
   -1.0198    2.5847   -1.8024 C   0  0  0  0  0  0  0  0  0  0  0  0
   -3.6830   -0.2968    0.5739 O   0  0  0  0  0  0  0  0  0  0  0  0
   -4.4358   -1.5238    0.4940 C   0  0  0  0  0  0  0  0  0  0  0  0
   -5.9056   -1.1941    0.6641 C   0  0  0  0  0  0  0  0  0  0  0  0
    3.6504    3.4237   -1.9677 H   0  0  0  0  0  0  0  0  0  0  0  0
    3.4214    1.7687   -2.5649 H   0  0  0  0  0  0  0  0  0  0  0  0
    2.2870    2.4505   -1.3921 H   0  0  0  0  0  0  0  0  0  0  0  0
    4.0364    2.5153    0.3388 H   0  0  0  0  0  0  0  0  0  0  0  0
    5.2440    1.8824   -0.8210 H   0  0  0  0  0  0  0  0  0  0  0  0
    3.9697   -2.1468    2.3113 H   0  0  0  0  0  0  0  0  0  0  0  0
    2.8839   -0.8412    2.8659 H   0  0  0  0  0  0  0  0  0  0  0  0
    0.9171   -2.3304    2.5399 H   0  0  0  0  0  0  0  0  0  0  0  0
    1.9829   -3.6339    1.9873 H   0  0  0  0  0  0  0  0  0  0  0  0
    2.0774   -3.0613    3.6595 H   0  0  0  0  0  0  0  0  0  0  0  0
    0.7517   -2.3923   -0.2855 H   0  0  0  0  0  0  0  0  0  0  0  0
   -0.4912   -1.8300   -1.4636 H   0  0  0  0  0  0  0  0  0  0  0  0
   -1.5294    3.3242    0.1685 H   0  0  0  0  0  0  0  0  0  0  0  0
   -0.3495    1.9953    0.1758 H   0  0  0  0  0  0  0  0  0  0  0  0
   -0.6730    1.6627   -2.2666 H   0  0  0  0  0  0  0  0  0  0  0  0
   -1.9470    2.8888   -2.2818 H   0  0  0  0  0  0  0  0  0  0  0  0
   -0.2711    3.3566   -1.9505 H   0  0  0  0  0  0  0  0  0  0  0  0
   -4.2484   -1.9965   -0.4769 H   0  0  0  0  0  0  0  0  0  0  0  0
   -4.0801   -2.1797    1.2924 H   0  0  0  0  0  0  0  0  0  0  0  0
   -6.0630   -0.6810    1.6083 H   0  0  0  0  0  0  0  0  0  0  0  0
   -6.2392   -0.5503   -0.1452 H   0  0  0  0  0  0  0  0  0  0  0  0
   -6.4814   -2.1137    0.6513 H   0  0  0  0  0  0  0  0  0  0  0  0
  1  2  1  0  0  0  0
  2  3  1  0  0  0  0
  3  4  2  0  0  0  0
  4  5  2  0  0  0  0
  4  6  2  0  0  0  0
  6  7  1  0  0  0  0
  7  8  1  0  0  0  0
  4  9  1  0  0  0  0
  9 10  1  0  0  0  0
 10 11  1  0  0  0  0
 11 12  1  0  0  0  0
 12 13  2  0  0  0  0
 12 14  2  0  0  0  0
 14 15  1  0  0  0  0
 15 16  1  0  0  0  0
 12 17  2  0  0  0  0
 17 18  1  0  0  0  0
 18 19  1  0  0  0  0
  1 20  1  0  0  0  0
  1 21  1  0  0  0  0
  1 22  1  0  0  0  0
  2 23  1  0  0  0  0
  2 24  1  0  0  0  0
  7 25  1  0  0  0  0
  7 26  1  0  0  0  0
  8 27  1  0  0  0  0
  8 28  1  0  0  0  0
  8 29  1  0  0  0  0
 10 30  1  0  0  0  0
 10 31  1  0  0  0  0
 15 32  1  0  0  0  0
 15 33  1  0  0  0  0
 16 34  1  0  0  0  0
 16 35  1  0  0  0  0
 16 36  1  0  0  0  0
 18 37  1  0  0  0  0
 18 38  1  0  0  0  0
 19 39  1  0  0  0  0
 19 40  1  0  0  0  0
 19 41  1  0  0  0  0
M  END
