 xtb: 6.7.1 (edcfbbe)
          04092505203D

 41 40  0     0  0            999 V2000
    3.5716   -1.3743   -2.7484 C   0  0  0  0  0  0  0  0  0  0  0  0
    4.0885   -0.1127   -2.0846 C   0  0  0  0  0  0  0  0  0  0  0  0
    3.7961   -0.0909   -0.6801 O   0  0  0  0  0  0  0  0  0  0  0  0
    2.3705    0.2616   -0.0855 P   0  0  0  0  0  0  0  0  0  0  0  0
    1.3371    1.4972   -1.2144 S   0  0  0  0  0  0  0  0  0  0  0  0
    2.9355    0.7415    1.3058 O   0  0  0  0  0  0  0  0  0  0  0  0
    2.1815    1.1012    2.4757 C   0  0  0  0  0  0  0  0  0  0  0  0
    1.8022    2.5684    2.4482 C   0  0  0  0  0  0  0  0  0  0  0  0
    1.4269   -1.5898    0.3677 S   0  0  0  0  0  0  0  0  0  0  0  0
    0.2429   -1.6959   -1.0218 C   0  0  0  0  0  0  0  0  0  0  0  0
   -1.4438   -2.0988   -0.5028 S   0  0  0  0  0  0  0  0  0  0  0  0
   -2.1220   -0.1843    0.0581 P   0  0  0  0  0  0  0  0  0  0  0  0
   -1.1875    0.8060    1.4743 S   0  0  0  0  0  0  0  0  0  0  0  0
   -3.6634   -0.4271    0.3566 O   0  0  0  0  0  0  0  0  0  0  0  0
   -4.1518   -0.7558    1.6676 C   0  0  0  0  0  0  0  0  0  0  0  0
   -3.7006   -2.1326    2.1108 C   0  0  0  0  0  0  0  0  0  0  0  0
   -2.1489    0.4870   -1.3749 O   0  0  0  0  0  0  0  0  0  0  0  0
   -2.2346    1.9116   -1.5733 C   0  0  0  0  0  0  0  0  0  0  0  0
   -3.5429    2.4774   -1.0648 C   0  0  0  0  0  0  0  0  0  0  0  0
    3.8956   -2.2493   -2.1910 H   0  0  0  0  0  0  0  0  0  0  0  0
    2.4838   -1.3570   -2.7852 H   0  0  0  0  0  0  0  0  0  0  0  0
    3.9562   -1.4302   -3.7618 H   0  0  0  0  0  0  0  0  0  0  0  0
    3.6542    0.7780   -2.5513 H   0  0  0  0  0  0  0  0  0  0  0  0
    5.1772   -0.0562   -2.1260 H   0  0  0  0  0  0  0  0  0  0  0  0
    1.2903    0.4730    2.5536 H   0  0  0  0  0  0  0  0  0  0  0  0
    2.8574    0.8810    3.3041 H   0  0  0  0  0  0  0  0  0  0  0  0
    2.6881    3.1837    2.3170 H   0  0  0  0  0  0  0  0  0  0  0  0
    1.1122    2.7611    1.6290 H   0  0  0  0  0  0  0  0  0  0  0  0
    1.3107    2.8271    3.3803 H   0  0  0  0  0  0  0  0  0  0  0  0
    0.5497   -2.5147   -1.6671 H   0  0  0  0  0  0  0  0  0  0  0  0
    0.2400   -0.7379   -1.5493 H   0  0  0  0  0  0  0  0  0  0  0  0
   -3.8015    0.0078    2.3701 H   0  0  0  0  0  0  0  0  0  0  0  0
   -5.2363   -0.6985    1.5658 H   0  0  0  0  0  0  0  0  0  0  0  0
   -3.9603   -2.8749    1.3602 H   0  0  0  0  0  0  0  0  0  0  0  0
   -2.6200   -2.1421    2.2514 H   0  0  0  0  0  0  0  0  0  0  0  0
   -4.1801   -2.3844    3.0513 H   0  0  0  0  0  0  0  0  0  0  0  0
   -1.3809    2.3837   -1.0761 H   0  0  0  0  0  0  0  0  0  0  0  0
   -2.1301    2.0281   -2.6528 H   0  0  0  0  0  0  0  0  0  0  0  0
   -3.5909    2.3841    0.0197 H   0  0  0  0  0  0  0  0  0  0  0  0
   -3.6070    3.5277   -1.3313 H   0  0  0  0  0  0  0  0  0  0  0  0
   -4.3791    1.9382   -1.5025 H   0  0  0  0  0  0  0  0  0  0  0  0
  1  2  1  0  0  0  0
  2  3  1  0  0  0  0
  3  4  2  0  0  0  0
  4  5  2  0  0  0  0
  4  6  2  0  0  0  0
  6  7  1  0  0  0  0
  7  8  1  0  0  0  0
  4  9  1  0  0  0  0
  9 10  1  0  0  0  0
 10 11  1  0  0  0  0
 11 12  1  0  0  0  0
 12 13  2  0  0  0  0
 12 14  2  0  0  0  0
 14 15  1  0  0  0  0
 15 16  1  0  0  0  0
 12 17  2  0  0  0  0
 17 18  1  0  0  0  0
 18 19  1  0  0  0  0
  1 20  1  0  0  0  0
  1 21  1  0  0  0  0
  1 22  1  0  0  0  0
  2 23  1  0  0  0  0
  2 24  1  0  0  0  0
  7 25  1  0  0  0  0
  7 26  1  0  0  0  0
  8 27  1  0  0  0  0
  8 28  1  0  0  0  0
  8 29  1  0  0  0  0
 10 30  1  0  0  0  0
 10 31  1  0  0  0  0
 15 32  1  0  0  0  0
 15 33  1  0  0  0  0
 16 34  1  0  0  0  0
 16 35  1  0  0  0  0
 16 36  1  0  0  0  0
 18 37  1  0  0  0  0
 18 38  1  0  0  0  0
 19 39  1  0  0  0  0
 19 40  1  0  0  0  0
 19 41  1  0  0  0  0
M  END
