  20
 
 C         -3.9345481436       -0.2987836293        0.0031532416
 C         -2.7006689107        0.5955424369       -0.0003893564
 C         -1.4113141935       -0.2221413029       -0.0002049983
 C         -0.1765381861        0.6739437833       -0.0014419426
 C          1.1056227374       -0.1139535854        0.0003154212
 O          1.1967859466       -1.3225719158        0.0010847885
 O          2.1663890908        0.6921436043        0.0009317017
 C          3.4594840969        0.0817574520        0.0039465002
 H         -4.8405539226        0.3017071606        0.0006062480
 H         -3.9427827445       -0.9394918455       -0.8754834234
 H         -3.9430304344       -0.9323092147        0.8869655996
 H         -2.7205989974        1.2364590188       -0.8839432171
 H         -2.7183571434        1.2403608261        0.8803782628
 H         -1.3834011096       -0.8710523639       -0.8777752629
 H         -1.3826757297       -0.8693752676        0.8785878259
 H         -0.1672756007        1.3233266280        0.8762626959
 H         -0.1669509111        1.3207109719       -0.8810499967
 H          4.1692780933        0.9025680766       -0.0023855323
 H          3.5776680283       -0.5469342628       -0.8793071828
 H          3.5790792473       -0.5342210524        0.8959055517
          20
        -27.11935257
 C         -3.2871120918       -0.8604628543       -0.3286048698
 C         -1.8859256302       -0.6223412208        0.2212266112
 C         -1.5031706011        0.8550823702        0.1636854353
 C         -0.1127131440        1.1083749791        0.7545158556
 C          0.9518260897        0.4545128813       -0.0877432522
 O          1.0973424517        0.6282826675       -1.2798557130
 O          1.7194307317       -0.3482243853        0.6398960176
 C          2.7936780142       -1.0512783330        0.0070117786
 H         -4.0209963006       -0.3042743892        0.2494732294
 H         -3.3481784785       -0.5357133035       -1.3647275068
 H         -3.5403431615       -1.9164249283       -0.2835774151
 H         -1.8361956089       -0.9691677889        1.2555882059
 H         -1.1639753615       -1.2026472835       -0.3593137882
 H         -2.2356417719        1.4421630870        0.7187845585
 H         -1.5088632808        1.1918180494       -0.8750393631
 H         -0.0405349526        0.7217671894        1.7703175369
 H          0.0871797953        2.1811036368        0.7596131567
 H          2.6863238415       -2.1033279093        0.2617711641
 H          3.7313167795       -0.6600224435        0.3983629849
 H          2.7444328363       -0.9072256141       -1.0729320572
