 xtb: 6.7.1 (edcfbbe)
          04092505213D

 41 40  0     0  0            999 V2000
    4.4236    0.7013   -2.1754 C   0  0  0  0  0  0  0  0  0  0  0  0
    4.6680    0.3982   -0.7107 C   0  0  0  0  0  0  0  0  0  0  0  0
    3.5548   -0.2807   -0.1107 O   0  0  0  0  0  0  0  0  0  0  0  0
    2.1506    0.4443    0.1395 P   0  0  0  0  0  0  0  0  0  0  0  0
    2.3137    2.3100    0.7113 S   0  0  0  0  0  0  0  0  0  0  0  0
    1.4878   -0.5653    1.1555 O   0  0  0  0  0  0  0  0  0  0  0  0
    1.7164   -0.4886    2.5809 C   0  0  0  0  0  0  0  0  0  0  0  0
    0.5066   -1.0760    3.2778 C   0  0  0  0  0  0  0  0  0  0  0  0
    0.9844    0.0870   -1.5881 S   0  0  0  0  0  0  0  0  0  0  0  0
    0.5790   -1.6701   -1.4118 C   0  0  0  0  0  0  0  0  0  0  0  0
   -0.6569   -2.0504   -0.1236 S   0  0  0  0  0  0  0  0  0  0  0  0
   -1.8978   -0.3606   -0.2760 P   0  0  0  0  0  0  0  0  0  0  0  0
   -2.4964    0.1834   -2.0672 S   0  0  0  0  0  0  0  0  0  0  0  0
   -1.1160    0.7237    0.5833 O   0  0  0  0  0  0  0  0  0  0  0  0
   -1.3659    2.1325    0.4065 C   0  0  0  0  0  0  0  0  0  0  0  0
   -2.7423    2.5224    0.8984 C   0  0  0  0  0  0  0  0  0  0  0  0
   -3.0720   -0.7455    0.7216 O   0  0  0  0  0  0  0  0  0  0  0  0
   -4.1448   -1.6271    0.3314 C   0  0  0  0  0  0  0  0  0  0  0  0
   -5.3269   -1.3589    1.2411 C   0  0  0  0  0  0  0  0  0  0  0  0
    5.3130    1.1530   -2.6028 H   0  0  0  0  0  0  0  0  0  0  0  0
    4.1842   -0.2087   -2.7192 H   0  0  0  0  0  0  0  0  0  0  0  0
    3.5909    1.3980   -2.2753 H   0  0  0  0  0  0  0  0  0  0  0  0
    4.8489    1.3228   -0.1531 H   0  0  0  0  0  0  0  0  0  0  0  0
    5.5039   -0.2889   -0.5731 H   0  0  0  0  0  0  0  0  0  0  0  0
    2.6237   -1.0554    2.8023 H   0  0  0  0  0  0  0  0  0  0  0  0
    1.8700    0.5611    2.8541 H   0  0  0  0  0  0  0  0  0  0  0  0
    0.3739   -2.1132    2.9823 H   0  0  0  0  0  0  0  0  0  0  0  0
    0.6503   -1.0182    4.3518 H   0  0  0  0  0  0  0  0  0  0  0  0
   -0.3868   -0.5205    3.0026 H   0  0  0  0  0  0  0  0  0  0  0  0
    1.4717   -2.2366   -1.1580 H   0  0  0  0  0  0  0  0  0  0  0  0
    0.1821   -1.9642   -2.3818 H   0  0  0  0  0  0  0  0  0  0  0  0
   -0.5722    2.6194    0.9770 H   0  0  0  0  0  0  0  0  0  0  0  0
   -1.2471    2.3748   -0.6555 H   0  0  0  0  0  0  0  0  0  0  0  0
   -2.8541    3.5999    0.8302 H   0  0  0  0  0  0  0  0  0  0  0  0
   -3.5011    2.0458    0.2786 H   0  0  0  0  0  0  0  0  0  0  0  0
   -2.8770    2.2065    1.9295 H   0  0  0  0  0  0  0  0  0  0  0  0
   -4.3922   -1.4320   -0.7177 H   0  0  0  0  0  0  0  0  0  0  0  0
   -3.7895   -2.6560    0.4308 H   0  0  0  0  0  0  0  0  0  0  0  0
   -5.6715   -0.3359    1.1184 H   0  0  0  0  0  0  0  0  0  0  0  0
   -6.1323   -2.0400    0.9866 H   0  0  0  0  0  0  0  0  0  0  0  0
   -5.0387   -1.5117    2.2770 H   0  0  0  0  0  0  0  0  0  0  0  0
  1  2  1  0  0  0  0
  2  3  1  0  0  0  0
  3  4  1  0  0  0  0
  4  5  2  0  0  0  0
  4  6  2  0  0  0  0
  6  7  1  0  0  0  0
  7  8  1  0  0  0  0
  4  9  1  0  0  0  0
  9 10  1  0  0  0  0
 10 11  1  0  0  0  0
 11 12  1  0  0  0  0
 12 13  2  0  0  0  0
 12 14  1  0  0  0  0
 14 15  1  0  0  0  0
 15 16  1  0  0  0  0
 12 17  2  0  0  0  0
 17 18  1  0  0  0  0
 18 19  1  0  0  0  0
  1 20  1  0  0  0  0
  1 21  1  0  0  0  0
  1 22  1  0  0  0  0
  2 23  1  0  0  0  0
  2 24  1  0  0  0  0
  7 25  1  0  0  0  0
  7 26  1  0  0  0  0
  8 27  1  0  0  0  0
  8 28  1  0  0  0  0
  8 29  1  0  0  0  0
 10 30  1  0  0  0  0
 10 31  1  0  0  0  0
 15 32  1  0  0  0  0
 15 33  1  0  0  0  0
 16 34  1  0  0  0  0
 16 35  1  0  0  0  0
 16 36  1  0  0  0  0
 18 37  1  0  0  0  0
 18 38  1  0  0  0  0
 19 39  1  0  0  0  0
 19 40  1  0  0  0  0
 19 41  1  0  0  0  0
M  END
