 xtb: 6.7.1 (edcfbbe)
          04092507313D

 38 37  0     0  0            999 V2000
    2.9569   -3.8927   -0.5309 C   0  0  0  0  0  0  0  0  0  0  0  0
    1.5507   -3.3274   -0.6499 C   0  0  0  0  0  0  0  0  0  0  0  0
    1.5327   -2.1460   -1.4721 O   0  0  0  0  0  0  0  0  0  0  0  0
    1.8505   -0.9903   -0.9378 C   0  0  0  0  0  0  0  0  0  0  0  0
    2.1639   -0.8183    0.2241 O   0  0  0  0  0  0  0  0  0  0  0  0
    1.7358    0.1458   -1.9366 C   0  0  0  0  0  0  0  0  0  0  0  0
    0.6139    1.0869   -1.4764 C   0  0  0  0  0  0  0  0  0  0  0  0
    0.5811    1.9739   -2.1113 H   0  0  0  0  0  0  0  0  0  0  0  0
    0.8493    1.4896   -0.0379 C   0  0  0  0  0  0  0  0  0  0  0  0
    0.1700    1.0685    0.8835 O   0  0  0  0  0  0  0  0  0  0  0  0
    1.8370    2.3184    0.0894 O   0  0  0  0  0  0  0  0  0  0  0  0
    2.2105    2.7461    1.4200 C   0  0  0  0  0  0  0  0  0  0  0  0
    3.0887    3.9732    1.2834 C   0  0  0  0  0  0  0  0  0  0  0  0
   -1.0137    0.2684   -1.6174 S   0  0  0  0  0  0  0  0  0  0  0  0
   -1.7733   -0.1291    0.3325 P   0  0  0  0  0  0  0  0  0  0  0  0
   -2.6187    1.2471    1.4634 S   0  0  0  0  0  0  0  0  0  0  0  0
   -2.9227   -1.1274   -0.2044 O   0  0  0  0  0  0  0  0  0  0  0  0
   -4.1024   -0.6553   -0.8546 C   0  0  0  0  0  0  0  0  0  0  0  0
   -0.9407   -1.3093    1.0075 O   0  0  0  0  0  0  0  0  0  0  0  0
   -0.3476   -1.2344    2.3053 C   0  0  0  0  0  0  0  0  0  0  0  0
    3.6031   -3.1867   -0.0142 H   0  0  0  0  0  0  0  0  0  0  0  0
    2.9226   -4.8175    0.0353 H   0  0  0  0  0  0  0  0  0  0  0  0
    3.3639   -4.0914   -1.5184 H   0  0  0  0  0  0  0  0  0  0  0  0
    1.1436   -3.0744    0.3333 H   0  0  0  0  0  0  0  0  0  0  0  0
    0.8826   -4.0196   -1.1626 H   0  0  0  0  0  0  0  0  0  0  0  0
    1.5037   -0.2529   -2.9222 H   0  0  0  0  0  0  0  0  0  0  0  0
    2.6747    0.7014   -1.9538 H   0  0  0  0  0  0  0  0  0  0  0  0
    1.2975    2.9507    1.9870 H   0  0  0  0  0  0  0  0  0  0  0  0
    2.7392    1.9142    1.8943 H   0  0  0  0  0  0  0  0  0  0  0  0
    2.5400    4.7754    0.7995 H   0  0  0  0  0  0  0  0  0  0  0  0
    3.3984    4.2988    2.2707 H   0  0  0  0  0  0  0  0  0  0  0  0
    3.9677    3.7383    0.6914 H   0  0  0  0  0  0  0  0  0  0  0  0
   -3.8828   -0.3974   -1.8909 H   0  0  0  0  0  0  0  0  0  0  0  0
   -4.4962    0.2177   -0.3292 H   0  0  0  0  0  0  0  0  0  0  0  0
   -4.8135   -1.4765   -0.8072 H   0  0  0  0  0  0  0  0  0  0  0  0
   -0.5706   -2.1783    2.7985 H   0  0  0  0  0  0  0  0  0  0  0  0
   -0.7693   -0.4014    2.8700 H   0  0  0  0  0  0  0  0  0  0  0  0
    0.7283   -1.0950    2.1946 H   0  0  0  0  0  0  0  0  0  0  0  0
  1  2  1  0  0  0  0
  2  3  1  0  0  0  0
  3  4  4  0  0  0  0
  4  5  2  0  0  0  0
  4  6  1  0  0  0  0
  6  7  1  0  0  0  0
  7  8  1  0  0  0  0
  7  9  1  0  0  0  0
  9 10  2  0  0  0  0
  9 11  4  0  0  0  0
 11 12  1  0  0  0  0
 12 13  1  0  0  0  0
  7 14  1  0  0  0  0
 14 15  1  0  0  0  0
 15 16  2  0  0  0  0
 15 17  1  0  0  0  0
 17 18  1  0  0  0  0
 15 19  1  0  0  0  0
 19 20  1  0  0  0  0
  1 21  1  0  0  0  0
  1 22  1  0  0  0  0
  1 23  1  0  0  0  0
  2 24  1  0  0  0  0
  2 25  1  0  0  0  0
  6 26  1  0  0  0  0
  6 27  1  0  0  0  0
 12 28  1  0  0  0  0
 12 29  1  0  0  0  0
 13 30  1  0  0  0  0
 13 31  1  0  0  0  0
 13 32  1  0  0  0  0
 18 33  1  0  0  0  0
 18 34  1  0  0  0  0
 18 35  1  0  0  0  0
 20 36  1  0  0  0  0
 20 37  1  0  0  0  0
 20 38  1  0  0  0  0
M  END
