 xtb: 6.7.1 (edcfbbe)
          04092507313D

 38 37  0     0  0            999 V2000
    5.4599   -2.0091   -1.7279 C   0  0  0  0  0  0  0  0  0  0  0  0
    4.9228   -1.0051   -0.7203 C   0  0  0  0  0  0  0  0  0  0  0  0
    3.6512   -1.4321   -0.1947 O   0  0  0  0  0  0  0  0  0  0  0  0
    2.5591   -1.1059   -0.8538 C   0  0  0  0  0  0  0  0  0  0  0  0
    2.5332   -0.4419   -1.8661 O   0  0  0  0  0  0  0  0  0  0  0  0
    1.3210   -1.6774   -0.1841 C   0  0  0  0  0  0  0  0  0  0  0  0
    0.2188   -0.6286   -0.1919 C   0  0  0  0  0  0  0  0  0  0  0  0
    0.0968   -0.2277   -1.2081 H   0  0  0  0  0  0  0  0  0  0  0  0
    0.5073    0.5536    0.7098 C   0  0  0  0  0  0  0  0  0  0  0  0
   -0.3756    1.1620    1.2829 O   0  0  0  0  0  0  0  0  0  0  0  0
    1.7778    0.8391    0.7858 O   0  0  0  0  0  0  0  0  0  0  0  0
    2.1697    1.9802    1.5835 C   0  0  0  0  0  0  0  0  0  0  0  0
    3.6820    1.9887    1.6720 C   0  0  0  0  0  0  0  0  0  0  0  0
   -1.3826   -1.3287    0.3222 S   0  0  0  0  0  0  0  0  0  0  0  0
   -2.5911    0.3954    0.0182 P   0  0  0  0  0  0  0  0  0  0  0  0
   -1.9730    1.7022   -1.3031 S   0  0  0  0  0  0  0  0  0  0  0  0
   -3.9694   -0.3084   -0.4226 O   0  0  0  0  0  0  0  0  0  0  0  0
   -4.1018   -0.9637   -1.6864 C   0  0  0  0  0  0  0  0  0  0  0  0
   -3.0628    0.9997    1.3976 O   0  0  0  0  0  0  0  0  0  0  0  0
   -3.6516    0.1865    2.4318 C   0  0  0  0  0  0  0  0  0  0  0  0
    6.4477   -1.6989   -2.0523 H   0  0  0  0  0  0  0  0  0  0  0  0
    5.5236   -2.9951   -1.2764 H   0  0  0  0  0  0  0  0  0  0  0  0
    4.8037   -2.0567   -2.5940 H   0  0  0  0  0  0  0  0  0  0  0  0
    4.7954   -0.0228   -1.1837 H   0  0  0  0  0  0  0  0  0  0  0  0
    5.5708   -0.9345    0.1533 H   0  0  0  0  0  0  0  0  0  0  0  0
    1.5669   -1.9956    0.8275 H   0  0  0  0  0  0  0  0  0  0  0  0
    0.9884   -2.5434   -0.7595 H   0  0  0  0  0  0  0  0  0  0  0  0
    1.7811    2.8804    1.0980 H   0  0  0  0  0  0  0  0  0  0  0  0
    1.6983    1.8854    2.5663 H   0  0  0  0  0  0  0  0  0  0  0  0
    4.0341    1.0695    2.1305 H   0  0  0  0  0  0  0  0  0  0  0  0
    4.1114    2.0749    0.6782 H   0  0  0  0  0  0  0  0  0  0  0  0
    3.9984    2.8349    2.2723 H   0  0  0  0  0  0  0  0  0  0  0  0
   -3.7175   -0.3233   -2.4823 H   0  0  0  0  0  0  0  0  0  0  0  0
   -5.1670   -1.1349   -1.8181 H   0  0  0  0  0  0  0  0  0  0  0  0
   -3.5583   -1.9084   -1.6724 H   0  0  0  0  0  0  0  0  0  0  0  0
   -2.9959   -0.6524    2.6659 H   0  0  0  0  0  0  0  0  0  0  0  0
   -4.6244   -0.1773    2.1058 H   0  0  0  0  0  0  0  0  0  0  0  0
   -3.7488    0.8487    3.2882 H   0  0  0  0  0  0  0  0  0  0  0  0
  1  2  1  0  0  0  0
  2  3  1  0  0  0  0
  3  4  1  0  0  0  0
  4  5  2  0  0  0  0
  4  6  1  0  0  0  0
  6  7  1  0  0  0  0
  7  8  1  0  0  0  0
  7  9  1  0  0  0  0
  9 10  2  0  0  0  0
  9 11  4  0  0  0  0
 11 12  1  0  0  0  0
 12 13  1  0  0  0  0
  7 14  1  0  0  0  0
 14 15  1  0  0  0  0
 15 16  2  0  0  0  0
 15 17  1  0  0  0  0
 17 18  1  0  0  0  0
 15 19  2  0  0  0  0
 19 20  1  0  0  0  0
  1 21  1  0  0  0  0
  1 22  1  0  0  0  0
  1 23  1  0  0  0  0
  2 24  1  0  0  0  0
  2 25  1  0  0  0  0
  6 26  1  0  0  0  0
  6 27  1  0  0  0  0
 12 28  1  0  0  0  0
 12 29  1  0  0  0  0
 13 30  1  0  0  0  0
 13 31  1  0  0  0  0
 13 32  1  0  0  0  0
 18 33  1  0  0  0  0
 18 34  1  0  0  0  0
 18 35  1  0  0  0  0
 20 36  1  0  0  0  0
 20 37  1  0  0  0  0
 20 38  1  0  0  0  0
M  END
