 xtb: 6.7.1 (edcfbbe)
          04092505203D

 41 40  0     0  0            999 V2000
    2.8932    2.7063    1.6071 C   0  0  0  0  0  0  0  0  0  0  0  0
    1.8289    2.1313    0.6952 C   0  0  0  0  0  0  0  0  0  0  0  0
    1.1865    0.9907    1.3113 O   0  0  0  0  0  0  0  0  0  0  0  0
    1.5604   -0.5004    0.9597 P   0  0  0  0  0  0  0  0  0  0  0  0
    0.6718   -1.8229    2.0902 S   0  0  0  0  0  0  0  0  0  0  0  0
    3.1481   -0.4629    1.1229 O   0  0  0  0  0  0  0  0  0  0  0  0
    3.9435   -1.6457    1.3101 C   0  0  0  0  0  0  0  0  0  0  0  0
    3.9364   -2.5580    0.1005 C   0  0  0  0  0  0  0  0  0  0  0  0
    1.3378   -0.7309   -1.1527 S   0  0  0  0  0  0  0  0  0  0  0  0
   -0.0906   -1.8408   -1.2039 C   0  0  0  0  0  0  0  0  0  0  0  0
   -1.6019   -1.1339   -1.9409 S   0  0  0  0  0  0  0  0  0  0  0  0
   -1.9077    0.5580   -0.7018 P   0  0  0  0  0  0  0  0  0  0  0  0
   -3.6884    1.3572   -0.8364 S   0  0  0  0  0  0  0  0  0  0  0  0
   -0.6799    1.5158   -1.0270 O   0  0  0  0  0  0  0  0  0  0  0  0
   -0.5513    2.1092   -2.3376 C   0  0  0  0  0  0  0  0  0  0  0  0
   -1.0653    3.5349   -2.3345 C   0  0  0  0  0  0  0  0  0  0  0  0
   -1.4323    0.1305    0.7513 O   0  0  0  0  0  0  0  0  0  0  0  0
   -2.3993   -0.2146    1.7605 C   0  0  0  0  0  0  0  0  0  0  0  0
   -3.0013   -1.5839    1.5181 C   0  0  0  0  0  0  0  0  0  0  0  0
    2.4601    2.9575    2.5715 H   0  0  0  0  0  0  0  0  0  0  0  0
    3.6915    1.9846    1.7575 H   0  0  0  0  0  0  0  0  0  0  0  0
    3.3013    3.6037    1.1525 H   0  0  0  0  0  0  0  0  0  0  0  0
    2.2527    1.8250   -0.2652 H   0  0  0  0  0  0  0  0  0  0  0  0
    1.0181    2.8427    0.5273 H   0  0  0  0  0  0  0  0  0  0  0  0
    4.9426   -1.2562    1.5110 H   0  0  0  0  0  0  0  0  0  0  0  0
    3.5687   -2.1752    2.1915 H   0  0  0  0  0  0  0  0  0  0  0  0
    4.6649   -3.3486    0.2494 H   0  0  0  0  0  0  0  0  0  0  0  0
    2.9526   -3.0073   -0.0239 H   0  0  0  0  0  0  0  0  0  0  0  0
    4.1874   -2.0004   -0.7982 H   0  0  0  0  0  0  0  0  0  0  0  0
   -0.2971   -2.1835   -0.1871 H   0  0  0  0  0  0  0  0  0  0  0  0
    0.1587   -2.6743   -1.8561 H   0  0  0  0  0  0  0  0  0  0  0  0
    0.5166    2.0664   -2.5636 H   0  0  0  0  0  0  0  0  0  0  0  0
   -1.0981    1.4995   -3.0656 H   0  0  0  0  0  0  0  0  0  0  0  0
   -0.5282    4.1282   -1.6000 H   0  0  0  0  0  0  0  0  0  0  0  0
   -0.9229    3.9667   -3.3198 H   0  0  0  0  0  0  0  0  0  0  0  0
   -2.1253    3.5499   -2.0895 H   0  0  0  0  0  0  0  0  0  0  0  0
   -1.8329   -0.1855    2.6927 H   0  0  0  0  0  0  0  0  0  0  0  0
   -3.1777    0.5546    1.7702 H   0  0  0  0  0  0  0  0  0  0  0  0
   -2.2262   -2.3468    1.5348 H   0  0  0  0  0  0  0  0  0  0  0  0
   -3.7233   -1.7981    2.2994 H   0  0  0  0  0  0  0  0  0  0  0  0
   -3.5079   -1.6010    0.5530 H   0  0  0  0  0  0  0  0  0  0  0  0
  1  2  1  0  0  0  0
  2  3  1  0  0  0  0
  3  4  2  0  0  0  0
  4  5  2  0  0  0  0
  4  6  2  0  0  0  0
  6  7  1  0  0  0  0
  7  8  1  0  0  0  0
  4  9  1  0  0  0  0
  9 10  1  0  0  0  0
 10 11  1  0  0  0  0
 11 12  1  0  0  0  0
 12 13  2  0  0  0  0
 12 14  2  0  0  0  0
 14 15  1  0  0  0  0
 15 16  1  0  0  0  0
 12 17  2  0  0  0  0
 17 18  1  0  0  0  0
 18 19  1  0  0  0  0
  1 20  1  0  0  0  0
  1 21  1  0  0  0  0
  1 22  1  0  0  0  0
  2 23  1  0  0  0  0
  2 24  1  0  0  0  0
  7 25  1  0  0  0  0
  7 26  1  0  0  0  0
  8 27  1  0  0  0  0
  8 28  1  0  0  0  0
  8 29  1  0  0  0  0
 10 30  1  0  0  0  0
 10 31  1  0  0  0  0
 15 32  1  0  0  0  0
 15 33  1  0  0  0  0
 16 34  1  0  0  0  0
 16 35  1  0  0  0  0
 16 36  1  0  0  0  0
 18 37  1  0  0  0  0
 18 38  1  0  0  0  0
 19 39  1  0  0  0  0
 19 40  1  0  0  0  0
 19 41  1  0  0  0  0
M  END
