 xtb: 6.7.1 (edcfbbe)
          04032519413D

  9  8  0     0  0            999 V2000
   -1.7100    0.3743   -0.0338 C   0  0  0  0  0  0  0  0  0  0  0  0
   -0.6032   -0.6572    0.0549 C   0  0  0  0  0  0  0  0  0  0  0  0
    1.0647    0.1004   -0.0411 S   0  0  0  0  0  0  0  0  0  0  0  0
   -2.6747   -0.1275   -0.0441 H   0  0  0  0  0  0  0  0  0  0  0  0
   -1.6770    1.0489    0.8186 H   0  0  0  0  0  0  0  0  0  0  0  0
   -1.6102    0.9600   -0.9448 H   0  0  0  0  0  0  0  0  0  0  0  0
   -0.6335   -1.3449   -0.7897 H   0  0  0  0  0  0  0  0  0  0  0  0
   -0.6503   -1.2270    0.9820 H   0  0  0  0  0  0  0  0  0  0  0  0
    0.9381    0.8681    1.0345 H   0  0  0  0  0  0  0  0  0  0  0  0
  1  2  1  0  0  0  0
  2  3  1  0  0  0  0
  1  4  1  0  0  0  0
  1  5  1  0  0  0  0
  1  6  1  0  0  0  0
  2  7  1  0  0  0  0
  2  8  1  0  0  0  0
  3  9  1  0  0  0  0
M  END
