 xtb: 6.7.1 (edcfbbe)
          04092505213D

 41 40  0     0  0            999 V2000
    5.6762   -0.2119   -0.8672 C   0  0  0  0  0  0  0  0  0  0  0  0
    4.5457   -1.0190   -1.4695 C   0  0  0  0  0  0  0  0  0  0  0  0
    3.4244   -1.1290   -0.5688 O   0  0  0  0  0  0  0  0  0  0  0  0
    2.5065    0.1105   -0.2014 P   0  0  0  0  0  0  0  0  0  0  0  0
    2.1838    1.3617   -1.6840 S   0  0  0  0  0  0  0  0  0  0  0  0
    3.2400    0.7196    1.0679 O   0  0  0  0  0  0  0  0  0  0  0  0
    2.9410    2.0267    1.5874 C   0  0  0  0  0  0  0  0  0  0  0  0
    1.5558    2.0910    2.1967 C   0  0  0  0  0  0  0  0  0  0  0  0
    0.8770   -0.9569    0.5856 S   0  0  0  0  0  0  0  0  0  0  0  0
    0.0301   -1.2324   -1.0140 C   0  0  0  0  0  0  0  0  0  0  0  0
   -1.6591   -1.7866   -0.7676 S   0  0  0  0  0  0  0  0  0  0  0  0
   -2.5495    0.0559   -0.1255 P   0  0  0  0  0  0  0  0  0  0  0  0
   -1.4411    1.6585   -0.3238 S   0  0  0  0  0  0  0  0  0  0  0  0
   -3.1068   -0.2479    1.3316 O   0  0  0  0  0  0  0  0  0  0  0  0
   -2.2803   -0.4336    2.4959 C   0  0  0  0  0  0  0  0  0  0  0  0
   -2.0798    0.8768    3.2323 C   0  0  0  0  0  0  0  0  0  0  0  0
   -3.8714    0.1995   -0.9611 O   0  0  0  0  0  0  0  0  0  0  0  0
   -4.7539   -0.8671   -1.3941 C   0  0  0  0  0  0  0  0  0  0  0  0
   -5.1658   -1.7942   -0.2722 C   0  0  0  0  0  0  0  0  0  0  0  0
    5.3671    0.8256   -0.7478 H   0  0  0  0  0  0  0  0  0  0  0  0
    5.9462   -0.6126    0.1063 H   0  0  0  0  0  0  0  0  0  0  0  0
    6.5372   -0.2496   -1.5272 H   0  0  0  0  0  0  0  0  0  0  0  0
    4.8371   -2.0545   -1.6495 H   0  0  0  0  0  0  0  0  0  0  0  0
    4.1965   -0.5596   -2.4001 H   0  0  0  0  0  0  0  0  0  0  0  0
    3.7190    2.1944    2.3336 H   0  0  0  0  0  0  0  0  0  0  0  0
    3.0369    2.7547    0.7753 H   0  0  0  0  0  0  0  0  0  0  0  0
    1.4231    3.0469    2.6931 H   0  0  0  0  0  0  0  0  0  0  0  0
    0.8002    1.9977    1.4159 H   0  0  0  0  0  0  0  0  0  0  0  0
    1.4226    1.2866    2.9159 H   0  0  0  0  0  0  0  0  0  0  0  0
    0.5402   -2.0220   -1.5610 H   0  0  0  0  0  0  0  0  0  0  0  0
    0.0360   -0.2899   -1.5677 H   0  0  0  0  0  0  0  0  0  0  0  0
   -2.8308   -1.1507    3.1080 H   0  0  0  0  0  0  0  0  0  0  0  0
   -1.3200   -0.8672    2.1995 H   0  0  0  0  0  0  0  0  0  0  0  0
   -1.4912    0.6993    4.1263 H   0  0  0  0  0  0  0  0  0  0  0  0
   -1.5572    1.5887    2.5978 H   0  0  0  0  0  0  0  0  0  0  0  0
   -3.0409    1.2999    3.5105 H   0  0  0  0  0  0  0  0  0  0  0  0
   -5.6076   -0.3262   -1.8055 H   0  0  0  0  0  0  0  0  0  0  0  0
   -4.2459   -1.4197   -2.1881 H   0  0  0  0  0  0  0  0  0  0  0  0
   -4.3046   -2.3539    0.0880 H   0  0  0  0  0  0  0  0  0  0  0  0
   -5.5907   -1.2254    0.5504 H   0  0  0  0  0  0  0  0  0  0  0  0
   -5.9070   -2.4929   -0.6480 H   0  0  0  0  0  0  0  0  0  0  0  0
  1  2  1  0  0  0  0
  2  3  1  0  0  0  0
  3  4  2  0  0  0  0
  4  5  2  0  0  0  0
  4  6  2  0  0  0  0
  6  7  1  0  0  0  0
  7  8  1  0  0  0  0
  4  9  1  0  0  0  0
  9 10  1  0  0  0  0
 10 11  1  0  0  0  0
 11 12  1  0  0  0  0
 12 13  2  0  0  0  0
 12 14  2  0  0  0  0
 14 15  1  0  0  0  0
 15 16  1  0  0  0  0
 12 17  2  0  0  0  0
 17 18  1  0  0  0  0
 18 19  1  0  0  0  0
  1 20  1  0  0  0  0
  1 21  1  0  0  0  0
  1 22  1  0  0  0  0
  2 23  1  0  0  0  0
  2 24  1  0  0  0  0
  7 25  1  0  0  0  0
  7 26  1  0  0  0  0
  8 27  1  0  0  0  0
  8 28  1  0  0  0  0
  8 29  1  0  0  0  0
 10 30  1  0  0  0  0
 10 31  1  0  0  0  0
 15 32  1  0  0  0  0
 15 33  1  0  0  0  0
 16 34  1  0  0  0  0
 16 35  1  0  0  0  0
 16 36  1  0  0  0  0
 18 37  1  0  0  0  0
 18 38  1  0  0  0  0
 19 39  1  0  0  0  0
 19 40  1  0  0  0  0
 19 41  1  0  0  0  0
M  END
