20
 xtb: 6.7.1 (edcfbbe)
C            0.63691573114625        1.67776127162361        0.02239736144081
C            1.39022306750594        0.38602973856645       -0.25180235263104
H            1.60262065889320        0.30471162995075       -1.32882962269898
C            0.53721516100089       -0.79718461383463        0.17464268863894
H            0.38736879714591       -0.75283288813137        1.26425895176437
C           -0.81368892352672       -0.73237605653107       -0.52633213273389
H           -0.66694222404721       -0.88394946606486       -1.60418839225750
C           -1.48641577775692        0.63602959230530       -0.32720316299969
H           -2.34143071774300        0.73717337187721       -1.00936929582437
O           -0.61714482857047        1.69099116950121       -0.68387533599583
O           -1.91560857539187        0.81199483149697        1.01671888172410
O           -1.63088010633440       -1.77316176590013        0.02432612700307
O            1.24734332715518       -1.99219228005925       -0.17491246575711
O            2.61103531346891        0.45185209994541        0.49152926580226
H            1.20008005837054        2.53574738141965       -0.35072976963064
H            0.47654725040946        1.79833237146447        1.10148605879675
H           -2.08684554350211       -0.07155391597382        1.37848078908446
H           -2.39236023338798       -1.89401664091209       -0.55928434362438
H            0.77145935395142       -2.73876974253414        0.21176162267818
H            3.09143887259165       -0.37093321428888        0.32777755136965
