 xtb: 6.7.1 (edcfbbe)
          04092514013D

 41 40  0     0  0            999 V2000
    5.6443    0.3095   -0.8925 C   0  0  0  0  0  0  0  0  0  0  0  0
    4.6326   -0.6517   -0.2989 C   0  0  0  0  0  0  0  0  0  0  0  0
    3.5468    0.0776    0.3134 O   0  0  0  0  0  0  0  0  0  0  0  0
    2.0956    0.1630   -0.3378 P   0  0  0  0  0  0  0  0  0  0  0  0
    2.0640    0.5826   -2.2570 S   0  0  0  0  0  0  0  0  0  0  0  0
    1.3967    1.1930    0.6349 O   0  0  0  0  0  0  0  0  0  0  0  0
    1.5017    2.6192    0.4268 C   0  0  0  0  0  0  0  0  0  0  0  0
    0.6542    3.2956    1.4821 C   0  0  0  0  0  0  0  0  0  0  0  0
    1.2106   -1.6461    0.2487 S   0  0  0  0  0  0  0  0  0  0  0  0
   -0.0834   -1.8138   -1.0353 C   0  0  0  0  0  0  0  0  0  0  0  0
   -1.7202   -2.0613   -0.3287 S   0  0  0  0  0  0  0  0  0  0  0  0
   -2.1550   -0.0302    0.1485 P   0  0  0  0  0  0  0  0  0  0  0  0
   -1.6094    1.2867   -1.1941 S   0  0  0  0  0  0  0  0  0  0  0  0
   -1.4548    0.3070    1.5179 O   0  0  0  0  0  0  0  0  0  0  0  0
   -1.6517   -0.4668    2.7297 C   0  0  0  0  0  0  0  0  0  0  0  0
   -0.4782   -0.1899    3.6458 C   0  0  0  0  0  0  0  0  0  0  0  0
   -3.6811   -0.0979    0.5885 O   0  0  0  0  0  0  0  0  0  0  0  0
   -4.7511   -0.7374   -0.1338 C   0  0  0  0  0  0  0  0  0  0  0  0
   -4.9589   -0.1497   -1.5138 C   0  0  0  0  0  0  0  0  0  0  0  0
    5.1873    0.8847   -1.6950 H   0  0  0  0  0  0  0  0  0  0  0  0
    6.0060    0.9926   -0.1291 H   0  0  0  0  0  0  0  0  0  0  0  0
    6.4799   -0.2554   -1.2934 H   0  0  0  0  0  0  0  0  0  0  0  0
    5.0704   -1.2441    0.5067 H   0  0  0  0  0  0  0  0  0  0  0  0
    4.2336   -1.3177   -1.0689 H   0  0  0  0  0  0  0  0  0  0  0  0
    2.5536    2.9056    0.5061 H   0  0  0  0  0  0  0  0  0  0  0  0
    1.1422    2.8454   -0.5830 H   0  0  0  0  0  0  0  0  0  0  0  0
   -0.3769    2.9629    1.3890 H   0  0  0  0  0  0  0  0  0  0  0  0
    1.0214    3.0412    2.4720 H   0  0  0  0  0  0  0  0  0  0  0  0
    0.6990    4.3705    1.3408 H   0  0  0  0  0  0  0  0  0  0  0  0
    0.1353   -2.7017   -1.6229 H   0  0  0  0  0  0  0  0  0  0  0  0
   -0.0794   -0.9159   -1.6605 H   0  0  0  0  0  0  0  0  0  0  0  0
   -2.5969   -0.1512    3.1753 H   0  0  0  0  0  0  0  0  0  0  0  0
   -1.7106   -1.5266    2.4640 H   0  0  0  0  0  0  0  0  0  0  0  0
    0.4511   -0.4712    3.1560 H   0  0  0  0  0  0  0  0  0  0  0  0
   -0.4370    0.8678    3.8896 H   0  0  0  0  0  0  0  0  0  0  0  0
   -0.5927   -0.7669    4.5576 H   0  0  0  0  0  0  0  0  0  0  0  0
   -4.5344   -1.8072   -0.1952 H   0  0  0  0  0  0  0  0  0  0  0  0
   -5.6219   -0.5713    0.5034 H   0  0  0  0  0  0  0  0  0  0  0  0
   -4.0908   -0.3427   -2.1423 H   0  0  0  0  0  0  0  0  0  0  0  0
   -5.8340   -0.6023   -1.9694 H   0  0  0  0  0  0  0  0  0  0  0  0
   -5.1035    0.9262   -1.4498 H   0  0  0  0  0  0  0  0  0  0  0  0
  1  2  1  0  0  0  0
  2  3  1  0  0  0  0
  3  4  2  0  0  0  0
  4  5  2  0  0  0  0
  4  6  2  0  0  0  0
  6  7  1  0  0  0  0
  7  8  1  0  0  0  0
  4  9  1  0  0  0  0
  9 10  1  0  0  0  0
 10 11  1  0  0  0  0
 11 12  1  0  0  0  0
 12 13  2  0  0  0  0
 12 14  2  0  0  0  0
 14 15  1  0  0  0  0
 15 16  1  0  0  0  0
 12 17  2  0  0  0  0
 17 18  1  0  0  0  0
 18 19  1  0  0  0  0
  1 20  1  0  0  0  0
  1 21  1  0  0  0  0
  1 22  1  0  0  0  0
  2 23  1  0  0  0  0
  2 24  1  0  0  0  0
  7 25  1  0  0  0  0
  7 26  1  0  0  0  0
  8 27  1  0  0  0  0
  8 28  1  0  0  0  0
  8 29  1  0  0  0  0
 10 30  1  0  0  0  0
 10 31  1  0  0  0  0
 15 32  1  0  0  0  0
 15 33  1  0  0  0  0
 16 34  1  0  0  0  0
 16 35  1  0  0  0  0
 16 36  1  0  0  0  0
 18 37  1  0  0  0  0
 18 38  1  0  0  0  0
 19 39  1  0  0  0  0
 19 40  1  0  0  0  0
 19 41  1  0  0  0  0
M  END
