 xtb: 6.7.1 (edcfbbe)
          04092505203D

 41 40  0     0  0            999 V2000
    4.0622   -2.0555   -1.3961 C   0  0  0  0  0  0  0  0  0  0  0  0
    4.6383   -0.7250   -0.9530 C   0  0  0  0  0  0  0  0  0  0  0  0
    3.8788   -0.1393    0.1168 O   0  0  0  0  0  0  0  0  0  0  0  0
    2.4082    0.4066   -0.0961 P   0  0  0  0  0  0  0  0  0  0  0  0
    2.0822    1.1927   -1.8681 S   0  0  0  0  0  0  0  0  0  0  0  0
    2.4443    1.3438    1.1799 O   0  0  0  0  0  0  0  0  0  0  0  0
    1.3359    2.1003    1.6905 C   0  0  0  0  0  0  0  0  0  0  0  0
    1.2225    3.4475    1.0047 C   0  0  0  0  0  0  0  0  0  0  0  0
    1.1246   -1.1849    0.4794 S   0  0  0  0  0  0  0  0  0  0  0  0
    0.1463   -1.4110   -1.0518 C   0  0  0  0  0  0  0  0  0  0  0  0
   -1.5717   -1.8059   -0.6938 S   0  0  0  0  0  0  0  0  0  0  0  0
   -2.1160    0.0398    0.2220 P   0  0  0  0  0  0  0  0  0  0  0  0
   -1.4527    1.6367   -0.7003 S   0  0  0  0  0  0  0  0  0  0  0  0
   -1.6096    0.0047    1.7189 O   0  0  0  0  0  0  0  0  0  0  0  0
   -2.2153   -0.7313    2.8110 C   0  0  0  0  0  0  0  0  0  0  0  0
   -2.1151   -2.2312    2.6296 C   0  0  0  0  0  0  0  0  0  0  0  0
   -3.6903   -0.0652    0.4006 O   0  0  0  0  0  0  0  0  0  0  0  0
   -4.6199    0.3264   -0.6258 C   0  0  0  0  0  0  0  0  0  0  0  0
   -4.5255   -0.5498   -1.8577 C   0  0  0  0  0  0  0  0  0  0  0  0
    3.9212   -2.7096   -0.5392 H   0  0  0  0  0  0  0  0  0  0  0  0
    3.1021   -1.8941   -1.8854 H   0  0  0  0  0  0  0  0  0  0  0  0
    4.7405   -2.5247   -2.1014 H   0  0  0  0  0  0  0  0  0  0  0  0
    4.6644   -0.0199   -1.7901 H   0  0  0  0  0  0  0  0  0  0  0  0
    5.6379   -0.8377   -0.5313 H   0  0  0  0  0  0  0  0  0  0  0  0
    0.4099    1.5273    1.5753 H   0  0  0  0  0  0  0  0  0  0  0  0
    1.5596    2.2148    2.7531 H   0  0  0  0  0  0  0  0  0  0  0  0
    0.9574    3.3178   -0.0434 H   0  0  0  0  0  0  0  0  0  0  0  0
    0.4441    4.0305    1.4866 H   0  0  0  0  0  0  0  0  0  0  0  0
    2.1682    3.9789    1.0657 H   0  0  0  0  0  0  0  0  0  0  0  0
    0.5382   -2.2614   -1.6042 H   0  0  0  0  0  0  0  0  0  0  0  0
    0.2104   -0.4899   -1.6394 H   0  0  0  0  0  0  0  0  0  0  0  0
   -1.6450   -0.3950    3.6783 H   0  0  0  0  0  0  0  0  0  0  0  0
   -3.2553   -0.4131    2.9010 H   0  0  0  0  0  0  0  0  0  0  0  0
   -1.0861   -2.5173    2.4222 H   0  0  0  0  0  0  0  0  0  0  0  0
   -2.4437   -2.7175    3.5428 H   0  0  0  0  0  0  0  0  0  0  0  0
   -2.7454   -2.5600    1.8065 H   0  0  0  0  0  0  0  0  0  0  0  0
   -5.5925    0.2347   -0.1399 H   0  0  0  0  0  0  0  0  0  0  0  0
   -4.4289    1.3729   -0.8826 H   0  0  0  0  0  0  0  0  0  0  0  0
   -4.5928   -1.5996   -1.5839 H   0  0  0  0  0  0  0  0  0  0  0  0
   -5.3353   -0.3003   -2.5358 H   0  0  0  0  0  0  0  0  0  0  0  0
   -3.5775   -0.3793   -2.3655 H   0  0  0  0  0  0  0  0  0  0  0  0
  1  2  1  0  0  0  0
  2  3  1  0  0  0  0
  3  4  2  0  0  0  0
  4  5  2  0  0  0  0
  4  6  2  0  0  0  0
  6  7  1  0  0  0  0
  7  8  1  0  0  0  0
  4  9  1  0  0  0  0
  9 10  1  0  0  0  0
 10 11  1  0  0  0  0
 11 12  1  0  0  0  0
 12 13  2  0  0  0  0
 12 14  2  0  0  0  0
 14 15  1  0  0  0  0
 15 16  1  0  0  0  0
 12 17  2  0  0  0  0
 17 18  1  0  0  0  0
 18 19  1  0  0  0  0
  1 20  1  0  0  0  0
  1 21  1  0  0  0  0
  1 22  1  0  0  0  0
  2 23  1  0  0  0  0
  2 24  1  0  0  0  0
  7 25  1  0  0  0  0
  7 26  1  0  0  0  0
  8 27  1  0  0  0  0
  8 28  1  0  0  0  0
  8 29  1  0  0  0  0
 10 30  1  0  0  0  0
 10 31  1  0  0  0  0
 15 32  1  0  0  0  0
 15 33  1  0  0  0  0
 16 34  1  0  0  0  0
 16 35  1  0  0  0  0
 16 36  1  0  0  0  0
 18 37  1  0  0  0  0
 18 38  1  0  0  0  0
 19 39  1  0  0  0  0
 19 40  1  0  0  0  0
 19 41  1  0  0  0  0
M  END
