 xtb: 6.7.1 (edcfbbe)
          04092505203D

 41 40  0     0  0            999 V2000
    4.6830    0.2665   -1.8047 C   0  0  0  0  0  0  0  0  0  0  0  0
    4.4568    1.1764   -0.6147 C   0  0  0  0  0  0  0  0  0  0  0  0
    3.5951    0.5839    0.3722 O   0  0  0  0  0  0  0  0  0  0  0  0
    2.0559    0.2981    0.1080 P   0  0  0  0  0  0  0  0  0  0  0  0
    1.1437    1.6998   -0.9124 S   0  0  0  0  0  0  0  0  0  0  0  0
    1.4635    0.1669    1.5626 O   0  0  0  0  0  0  0  0  0  0  0  0
    1.6713   -0.9251    2.4944 C   0  0  0  0  0  0  0  0  0  0  0  0
    3.1335   -1.2167    2.7494 C   0  0  0  0  0  0  0  0  0  0  0  0
    2.0208   -1.6468   -0.7494 S   0  0  0  0  0  0  0  0  0  0  0  0
    0.2978   -1.6532   -1.2834 C   0  0  0  0  0  0  0  0  0  0  0  0
   -0.8742   -1.7777    0.1149 S   0  0  0  0  0  0  0  0  0  0  0  0
   -2.0061   -0.0235   -0.1323 P   0  0  0  0  0  0  0  0  0  0  0  0
   -2.1622    0.6745   -1.9614 S   0  0  0  0  0  0  0  0  0  0  0  0
   -1.4177    0.9170    0.9938 O   0  0  0  0  0  0  0  0  0  0  0  0
   -1.6559    2.3381    1.0178 C   0  0  0  0  0  0  0  0  0  0  0  0
   -3.1175    2.6648    1.2325 C   0  0  0  0  0  0  0  0  0  0  0  0
   -3.3920   -0.4458    0.5233 O   0  0  0  0  0  0  0  0  0  0  0  0
   -4.3494   -1.2539   -0.1885 C   0  0  0  0  0  0  0  0  0  0  0  0
   -5.7049   -1.0566    0.4599 C   0  0  0  0  0  0  0  0  0  0  0  0
    5.0062   -0.7174   -1.4749 H   0  0  0  0  0  0  0  0  0  0  0  0
    3.7615    0.1617   -2.3750 H   0  0  0  0  0  0  0  0  0  0  0  0
    5.4434    0.7003   -2.4462 H   0  0  0  0  0  0  0  0  0  0  0  0
    4.0149    2.1252   -0.9351 H   0  0  0  0  0  0  0  0  0  0  0  0
    5.3827    1.3640   -0.0692 H   0  0  0  0  0  0  0  0  0  0  0  0
    1.1635   -0.5764    3.3949 H   0  0  0  0  0  0  0  0  0  0  0  0
    1.1571   -1.8087    2.1047 H   0  0  0  0  0  0  0  0  0  0  0  0
    3.6500   -0.3132    3.0626 H   0  0  0  0  0  0  0  0  0  0  0  0
    3.2096   -1.9652    3.5321 H   0  0  0  0  0  0  0  0  0  0  0  0
    3.6058   -1.5985    1.8468 H   0  0  0  0  0  0  0  0  0  0  0  0
    0.1740   -2.5374   -1.9030 H   0  0  0  0  0  0  0  0  0  0  0  0
    0.0720   -0.7421   -1.8447 H   0  0  0  0  0  0  0  0  0  0  0  0
   -1.0294    2.6890    1.8395 H   0  0  0  0  0  0  0  0  0  0  0  0
   -1.2911    2.7653    0.0774 H   0  0  0  0  0  0  0  0  0  0  0  0
   -3.2318    3.7388    1.3407 H   0  0  0  0  0  0  0  0  0  0  0  0
   -3.6985    2.3314    0.3732 H   0  0  0  0  0  0  0  0  0  0  0  0
   -3.4864    2.1653    2.1246 H   0  0  0  0  0  0  0  0  0  0  0  0
   -4.3560   -0.9421   -1.2386 H   0  0  0  0  0  0  0  0  0  0  0  0
   -4.0258   -2.2964   -0.1267 H   0  0  0  0  0  0  0  0  0  0  0  0
   -5.6547   -1.3269    1.5105 H   0  0  0  0  0  0  0  0  0  0  0  0
   -6.0135   -0.0183    0.3772 H   0  0  0  0  0  0  0  0  0  0  0  0
   -6.4325   -1.6868   -0.0406 H   0  0  0  0  0  0  0  0  0  0  0  0
  1  2  1  0  0  0  0
  2  3  1  0  0  0  0
  3  4  2  0  0  0  0
  4  5  2  0  0  0  0
  4  6  2  0  0  0  0
  6  7  1  0  0  0  0
  7  8  1  0  0  0  0
  4  9  1  0  0  0  0
  9 10  1  0  0  0  0
 10 11  1  0  0  0  0
 11 12  1  0  0  0  0
 12 13  2  0  0  0  0
 12 14  2  0  0  0  0
 14 15  1  0  0  0  0
 15 16  1  0  0  0  0
 12 17  2  0  0  0  0
 17 18  1  0  0  0  0
 18 19  1  0  0  0  0
  1 20  1  0  0  0  0
  1 21  1  0  0  0  0
  1 22  1  0  0  0  0
  2 23  1  0  0  0  0
  2 24  1  0  0  0  0
  7 25  1  0  0  0  0
  7 26  1  0  0  0  0
  8 27  1  0  0  0  0
  8 28  1  0  0  0  0
  8 29  1  0  0  0  0
 10 30  1  0  0  0  0
 10 31  1  0  0  0  0
 15 32  1  0  0  0  0
 15 33  1  0  0  0  0
 16 34  1  0  0  0  0
 16 35  1  0  0  0  0
 16 36  1  0  0  0  0
 18 37  1  0  0  0  0
 18 38  1  0  0  0  0
 19 39  1  0  0  0  0
 19 40  1  0  0  0  0
 19 41  1  0  0  0  0
M  END
