41
 xtb: 6.7.1 (edcfbbe)
C            3.38409952389606       -2.34493574104376        1.98461146403032
C            3.30451732836416       -0.86848776460398        1.69594328139736
O            3.52376700088201       -0.64437208275953        0.24954270603723
P            2.41364433788506        0.06549299938749       -0.67065393728739
S            3.09888880043314        0.51893195821030       -2.43326110881114
O            1.78934351386509        1.27282955217550        0.18897007924200
C            2.33480959021252        2.63741517070384        0.13512346239781
C            3.61469793345611        2.75525852723986        0.92509285211367
S            0.84217048851927       -1.35195276105242       -0.58840107296883
C           -0.32131366545848       -0.67469790938071       -1.83689773616926
S           -1.22404672685948        0.87953411483969       -1.42066594686753
P           -2.72512607821589        0.21697372466839       -0.10129165170780
S           -3.80505789418148        1.73627048331549        0.46031149150651
O           -2.00348517230706       -0.63406391585872        1.06247408463579
C           -1.20375602688309        0.05263678968186        2.08542715897528
C           -0.62534553978222       -1.00413100477663        2.99047780324924
O           -3.44032344081864       -0.96698731820927       -0.91278382925951
C           -4.81042775610059       -1.40799856676216       -0.58891043730797
C           -4.86567812548241       -2.18982983255452        0.69965250077501
H            3.27965727288892       -2.49751304560887        3.06376943437551
H            2.58350208385297       -2.89589970941321        1.48204169505221
H            4.34851346943633       -2.75389955764362        1.67057340903050
H            4.10057661065351       -0.31191398828587        2.19622619323091
H            2.34070459213949       -0.44463141554199        1.99299568493289
H            2.47114651686749        2.91195947645306       -0.91538690828387
H            1.53730464373860        3.24833953307488        0.56296735065677
H            4.41808100923069        2.15828157227357        0.48248112387644
H            3.93104763387788        3.80356445520888        0.92423098834750
H            3.46504107449080        2.44232212083962        1.96247243712028
H           -1.03533019814864       -1.47656477084587       -2.04225148317346
H            0.22998297064489       -0.45274461540516       -2.75616636164679
H           -0.42071335453029        0.63116774336176        1.58335223767640
H           -1.86397587617661        0.73482392669623        2.62996956013845
H           -0.03918614705411       -0.51484890575701        3.77450153053561
H           -1.41997905029986       -1.58577628241457        3.46693414580137
H            0.03196281918437       -1.68227729016281        2.43860061498982
H           -5.45425848475818       -0.52362047156335       -0.56192227477131
H           -5.08446200101376       -2.02363139922092       -1.44738773553708
H           -5.88127795674806       -2.58082739526883        0.82218836033398
H           -4.17108796296386       -3.03431076987283        0.67740321699537
H           -4.63828567697200       -1.56146704226437        1.56556064138592
