38
 xtb: 6.7.1 (edcfbbe)
C            3.72454669076138       -2.93861485392230       -2.85911157886120
C            2.99804080491308       -3.23469444736818       -1.57304271144656
O            2.73384753803216       -1.94885062194379       -0.92167057199347
C            2.11972367813508       -1.99634823734969        0.26708859006990
O            1.80055531359140       -3.03205084287032        0.82554747828240
C            1.89096517377964       -0.62208921445342        0.83895534060115
C            1.16573947756437        0.30327248401661       -0.13582212434079
H            1.79699146103239        0.48479763146218       -1.01597249352700
C            0.91730239787823        1.67441525096934        0.47700739856640
O            1.53565531726950        2.07703874057269        1.44368410049245
O            0.01566154003524        2.37657781403503       -0.20407323282738
C           -0.29693858896815        3.72352561626256        0.28733469141569
C            0.69618072014916        4.72883263206204       -0.24330339460167
S           -0.33170015706528       -0.50339194484779       -0.88981582722381
P           -1.88523848869677       -0.16745843076740        0.52129963117106
S           -1.37176625987797       -0.00748210989857        2.38571339703921
O           -2.74126652156325        1.10499741494930        0.05293973818685
C           -3.11264543813350        1.31556250345109       -1.34159195508787
O           -2.87472428407873       -1.37061539340691        0.10334066789991
C           -2.57448826242686       -2.73265219802215        0.52309309930530
H            4.67576221654075       -2.43478899252448       -2.66558747123419
H            3.93366029440330       -3.88124606430566       -3.37337403806795
H            3.11767154731543       -2.31359179926555       -3.52025476633525
H            3.59778269541761       -3.84505605115179       -0.89223452452989
H            2.03789012681700       -3.73013110057187       -1.74508613012051
H            2.86683156860790       -0.18202581857621        1.07530515160345
H            1.32383080486558       -0.72943611623929        1.76357432584704
H           -1.30373498155602        3.90609669256085       -0.09400744538151
H           -0.32089494591035        3.69429641361017        1.37954277893127
H            1.70449342963279        4.52754742548879        0.12784773950209
H            0.70853597616676        4.72125754881354       -1.33688917220804
H            0.39948017183634        5.72825809208406        0.08985857302770
H           -3.77820283704155        2.17864626864615       -1.33464492754895
H           -3.63556657271839        0.44114751184397       -1.73647764721829
H           -2.22081755235591        1.53246501759045       -1.93409822918129
H           -1.56545783279973       -3.01899292189468        0.21187853315695
H           -3.31163280862193       -3.36178640059201        0.02466891612943
H           -2.67580089443421       -2.81504285248238        1.60793048451394
