 xtb: 6.7.1 (edcfbbe)
          04092513583D

 41 40  0     0  0            999 V2000
    4.6609   -1.3406   -2.2857 C   0  0  0  0  0  0  0  0  0  0  0  0
    3.8270   -2.1832   -1.3436 C   0  0  0  0  0  0  0  0  0  0  0  0
    3.4375   -1.4737   -0.1522 O   0  0  0  0  0  0  0  0  0  0  0  0
    2.5797   -0.1376   -0.0893 P   0  0  0  0  0  0  0  0  0  0  0  0
    3.4565    1.5682   -0.4696 S   0  0  0  0  0  0  0  0  0  0  0  0
    2.0887   -0.1639    1.4073 O   0  0  0  0  0  0  0  0  0  0  0  0
    1.4352   -1.3201    1.9905 C   0  0  0  0  0  0  0  0  0  0  0  0
    0.5779   -0.8466    3.1451 C   0  0  0  0  0  0  0  0  0  0  0  0
    0.8876   -0.5964   -1.3161 S   0  0  0  0  0  0  0  0  0  0  0  0
    0.2346    1.0840   -1.3796 C   0  0  0  0  0  0  0  0  0  0  0  0
   -0.5074    1.6164    0.1882 S   0  0  0  0  0  0  0  0  0  0  0  0
   -2.2827    0.4870    0.0206 P   0  0  0  0  0  0  0  0  0  0  0  0
   -3.1108    0.4164   -1.7601 S   0  0  0  0  0  0  0  0  0  0  0  0
   -3.2165    1.0718    1.1665 O   0  0  0  0  0  0  0  0  0  0  0  0
   -3.9819    2.2831    1.0040 C   0  0  0  0  0  0  0  0  0  0  0  0
   -5.1357    2.2450    1.9865 C   0  0  0  0  0  0  0  0  0  0  0  0
   -1.8450   -0.8957    0.6433 O   0  0  0  0  0  0  0  0  0  0  0  0
   -2.6305   -2.1030    0.4822 C   0  0  0  0  0  0  0  0  0  0  0  0
   -1.6842   -3.2815    0.3805 C   0  0  0  0  0  0  0  0  0  0  0  0
    4.9851   -1.9532   -3.1210 H   0  0  0  0  0  0  0  0  0  0  0  0
    4.0752   -0.5043   -2.6641 H   0  0  0  0  0  0  0  0  0  0  0  0
    5.5324   -0.9435   -1.7711 H   0  0  0  0  0  0  0  0  0  0  0  0
    4.3968   -3.0308   -0.9582 H   0  0  0  0  0  0  0  0  0  0  0  0
    2.9207   -2.5388   -1.8411 H   0  0  0  0  0  0  0  0  0  0  0  0
    0.8285   -1.8024    1.2181 H   0  0  0  0  0  0  0  0  0  0  0  0
    2.2161   -2.0073    2.3210 H   0  0  0  0  0  0  0  0  0  0  0  0
    0.1084   -1.7052    3.6147 H   0  0  0  0  0  0  0  0  0  0  0  0
    1.1897   -0.3247    3.8751 H   0  0  0  0  0  0  0  0  0  0  0  0
   -0.1938   -0.1689    2.7871 H   0  0  0  0  0  0  0  0  0  0  0  0
   -0.5230    1.1042   -2.1637 H   0  0  0  0  0  0  0  0  0  0  0  0
    1.0495    1.7784   -1.5896 H   0  0  0  0  0  0  0  0  0  0  0  0
   -3.3194    3.1301    1.2000 H   0  0  0  0  0  0  0  0  0  0  0  0
   -4.3378    2.3372   -0.0304 H   0  0  0  0  0  0  0  0  0  0  0  0
   -5.6979    3.1701    1.9099 H   0  0  0  0  0  0  0  0  0  0  0  0
   -5.7917    1.4082    1.7641 H   0  0  0  0  0  0  0  0  0  0  0  0
   -4.7567    2.1377    2.9987 H   0  0  0  0  0  0  0  0  0  0  0  0
   -3.2826   -2.1845    1.3540 H   0  0  0  0  0  0  0  0  0  0  0  0
   -3.2424   -2.0063   -0.4209 H   0  0  0  0  0  0  0  0  0  0  0  0
   -1.0330   -3.1642   -0.4824 H   0  0  0  0  0  0  0  0  0  0  0  0
   -1.0783   -3.3537    1.2791 H   0  0  0  0  0  0  0  0  0  0  0  0
   -2.2645   -4.1916    0.2677 H   0  0  0  0  0  0  0  0  0  0  0  0
  1  2  1  0  0  0  0
  2  3  1  0  0  0  0
  3  4  2  0  0  0  0
  4  5  2  0  0  0  0
  4  6  2  0  0  0  0
  6  7  1  0  0  0  0
  7  8  1  0  0  0  0
  4  9  1  0  0  0  0
  9 10  1  0  0  0  0
 10 11  1  0  0  0  0
 11 12  1  0  0  0  0
 12 13  2  0  0  0  0
 12 14  2  0  0  0  0
 14 15  1  0  0  0  0
 15 16  1  0  0  0  0
 12 17  2  0  0  0  0
 17 18  1  0  0  0  0
 18 19  1  0  0  0  0
  1 20  1  0  0  0  0
  1 21  1  0  0  0  0
  1 22  1  0  0  0  0
  2 23  1  0  0  0  0
  2 24  1  0  0  0  0
  7 25  1  0  0  0  0
  7 26  1  0  0  0  0
  8 27  1  0  0  0  0
  8 28  1  0  0  0  0
  8 29  1  0  0  0  0
 10 30  1  0  0  0  0
 10 31  1  0  0  0  0
 15 32  1  0  0  0  0
 15 33  1  0  0  0  0
 16 34  1  0  0  0  0
 16 35  1  0  0  0  0
 16 36  1  0  0  0  0
 18 37  1  0  0  0  0
 18 38  1  0  0  0  0
 19 39  1  0  0  0  0
 19 40  1  0  0  0  0
 19 41  1  0  0  0  0
M  END
