41
 xtb: 6.7.1 (edcfbbe)
C            4.87952435565835       -0.55949322281484       -2.27167554416815
C            4.90518006773532        0.33787916305282       -1.06074915377661
O            3.90458456906938       -0.05720449451400       -0.05570843377958
P            2.33806527293522        0.27618139655165       -0.19140191802011
S            1.79400443680042        1.83198826064128       -1.21877497270837
O            1.87128469554975        0.40165398044381        1.33514280013636
C            2.22436804508561       -0.61034504268533        2.34914123381488
C            3.22883028243050       -0.02432284874670        3.30803208188720
S            1.65101651556536       -1.60712470960542       -0.92607296857659
C           -0.10923745809410       -1.21885959376034       -1.22659720941889
S           -1.07195450421924       -1.24711010764014        0.35046504451362
P           -2.66293902502818        0.11891788523017       -0.02709608184435
S           -2.60625092455446        1.00017607070631       -1.76209065797335
O           -2.64488023100731        1.05076385090784        1.28451475978616
C           -1.47469319878921        1.90969928173182        1.53514034926254
C           -1.96869678770873        3.30216344429483        1.83033129050299
O           -4.01238540288601       -0.66613305155903        0.35398480436895
C           -4.81271798181239       -1.36496492033223       -0.66077911757316
C           -4.16674153863687       -2.64838721928815       -1.12196225253148
H            4.99307218789354       -1.60920882978486       -1.98567408972440
H            3.95474880419503       -0.44032479044625       -2.84302055612304
H            5.71786725852979       -0.28705550944215       -2.92130005670616
H            4.72935250993991        1.38554192143583       -1.32139377117878
H            5.84983017140128        0.25770903860032       -0.51967103820302
H            1.28119500411603       -0.85616313610428        2.84283284165866
H            2.60557782126356       -1.50896909706977        1.85534966266134
H            2.83224553055899        0.87580338362935        3.78597029270526
H            3.44415470899166       -0.76203120558368        4.08791637812783
H            4.16375171315014        0.22315190164505        2.79783391472133
H           -0.47828713753283       -1.99569173266349       -1.90116177495427
H           -0.20562983484397       -0.23620034155470       -1.69828010492831
H           -0.94488382444798        1.46929944294033        2.38420419691147
H           -0.81380777153945        1.89878494357786        0.66159142969132
H           -2.64463723841060        3.30566711720486        2.69014154444853
H           -1.11082943393819        3.94114534624315        2.06256398475744
H           -2.48928214468978        3.72148267569148        0.96447085874482
H           -5.75783818072226       -1.55441277110719       -0.14838315744940
H           -4.98937862643859       -0.67489605592762       -1.49127394549525
H           -3.94120498222421       -3.30310881887253       -0.27563510010343
H           -4.86874934492981       -3.16727898651500       -1.78293639852315
H           -3.24692580670702       -2.46247268460033       -1.68475479595054
