 xtb: 6.7.1 (edcfbbe)
          04092505213D

 41 40  0     0  0            999 V2000
    4.3265    0.9950   -2.1474 C   0  0  0  0  0  0  0  0  0  0  0  0
    4.6359    0.4917   -0.7535 C   0  0  0  0  0  0  0  0  0  0  0  0
    3.5984    0.8082    0.1943 O   0  0  0  0  0  0  0  0  0  0  0  0
    2.0709    0.4066    0.0473 P   0  0  0  0  0  0  0  0  0  0  0  0
    0.9251    1.4866   -1.1245 S   0  0  0  0  0  0  0  0  0  0  0  0
    1.5634    0.5662    1.5334 O   0  0  0  0  0  0  0  0  0  0  0  0
    2.2785    0.1822    2.7370 C   0  0  0  0  0  0  0  0  0  0  0  0
    2.2265   -1.3119    2.9851 C   0  0  0  0  0  0  0  0  0  0  0  0
    2.1635   -1.6584   -0.4762 S   0  0  0  0  0  0  0  0  0  0  0  0
    0.4292   -1.8723   -0.9041 C   0  0  0  0  0  0  0  0  0  0  0  0
   -0.6770   -1.5742    0.5195 S   0  0  0  0  0  0  0  0  0  0  0  0
   -2.0804   -0.2685   -0.3659 P   0  0  0  0  0  0  0  0  0  0  0  0
   -2.1390   -0.1185   -2.3094 S   0  0  0  0  0  0  0  0  0  0  0  0
   -1.9269    1.1416    0.3480 O   0  0  0  0  0  0  0  0  0  0  0  0
   -1.8466    1.2643    1.7878 C   0  0  0  0  0  0  0  0  0  0  0  0
   -2.4868    2.5774    2.1876 C   0  0  0  0  0  0  0  0  0  0  0  0
   -3.3634   -0.9605    0.2982 O   0  0  0  0  0  0  0  0  0  0  0  0
   -4.6752   -0.8395   -0.2811 C   0  0  0  0  0  0  0  0  0  0  0  0
   -5.2597    0.5414   -0.0615 C   0  0  0  0  0  0  0  0  0  0  0  0
    4.1275    2.0640   -2.1305 H   0  0  0  0  0  0  0  0  0  0  0  0
    5.1704    0.7956   -2.7999 H   0  0  0  0  0  0  0  0  0  0  0  0
    3.4455    0.4907   -2.5424 H   0  0  0  0  0  0  0  0  0  0  0  0
    5.5185    0.9823   -0.3395 H   0  0  0  0  0  0  0  0  0  0  0  0
    4.7761   -0.5924   -0.7559 H   0  0  0  0  0  0  0  0  0  0  0  0
    3.3063    0.5388    2.6570 H   0  0  0  0  0  0  0  0  0  0  0  0
    1.7557    0.7326    3.5211 H   0  0  0  0  0  0  0  0  0  0  0  0
    1.2027   -1.6709    2.9057 H   0  0  0  0  0  0  0  0  0  0  0  0
    2.8402   -1.8468    2.2650 H   0  0  0  0  0  0  0  0  0  0  0  0
    2.5991   -1.5132    3.9846 H   0  0  0  0  0  0  0  0  0  0  0  0
    0.3181   -2.9064   -1.2205 H   0  0  0  0  0  0  0  0  0  0  0  0
    0.1525   -1.1817   -1.7057 H   0  0  0  0  0  0  0  0  0  0  0  0
   -2.3522    0.4088    2.2461 H   0  0  0  0  0  0  0  0  0  0  0  0
   -0.7856    1.2441    2.0507 H   0  0  0  0  0  0  0  0  0  0  0  0
   -1.9904    3.3967    1.6747 H   0  0  0  0  0  0  0  0  0  0  0  0
   -3.5394    2.5848    1.9181 H   0  0  0  0  0  0  0  0  0  0  0  0
   -2.3876    2.7092    3.2603 H   0  0  0  0  0  0  0  0  0  0  0  0
   -4.6030   -1.0613   -1.3505 H   0  0  0  0  0  0  0  0  0  0  0  0
   -5.2580   -1.6131    0.2208 H   0  0  0  0  0  0  0  0  0  0  0  0
   -4.6340    1.2868   -0.5530 H   0  0  0  0  0  0  0  0  0  0  0  0
   -6.2571    0.5823   -0.4878 H   0  0  0  0  0  0  0  0  0  0  0  0
   -5.3131    0.7655    1.0011 H   0  0  0  0  0  0  0  0  0  0  0  0
  1  2  1  0  0  0  0
  2  3  1  0  0  0  0
  3  4  2  0  0  0  0
  4  5  2  0  0  0  0
  4  6  2  0  0  0  0
  6  7  1  0  0  0  0
  7  8  1  0  0  0  0
  4  9  1  0  0  0  0
  9 10  1  0  0  0  0
 10 11  1  0  0  0  0
 11 12  1  0  0  0  0
 12 13  2  0  0  0  0
 12 14  2  0  0  0  0
 14 15  1  0  0  0  0
 15 16  1  0  0  0  0
 12 17  1  0  0  0  0
 17 18  1  0  0  0  0
 18 19  1  0  0  0  0
  1 20  1  0  0  0  0
  1 21  1  0  0  0  0
  1 22  1  0  0  0  0
  2 23  1  0  0  0  0
  2 24  1  0  0  0  0
  7 25  1  0  0  0  0
  7 26  1  0  0  0  0
  8 27  1  0  0  0  0
  8 28  1  0  0  0  0
  8 29  1  0  0  0  0
 10 30  1  0  0  0  0
 10 31  1  0  0  0  0
 15 32  1  0  0  0  0
 15 33  1  0  0  0  0
 16 34  1  0  0  0  0
 16 35  1  0  0  0  0
 16 36  1  0  0  0  0
 18 37  1  0  0  0  0
 18 38  1  0  0  0  0
 19 39  1  0  0  0  0
 19 40  1  0  0  0  0
 19 41  1  0  0  0  0
M  END
