 xtb: 6.7.1 (edcfbbe)
          04032520513D

 22 24  0     0  0            999 V2000
    0.9478    1.6239   -1.7729 C   0  0  0  0  0  0  0  0  0  0  0  0
    2.0526    1.7656   -1.0573 C   0  0  0  0  0  0  0  0  0  0  0  0
    2.4286    0.5172   -0.3294 C   0  0  0  0  0  0  0  0  0  0  0  0
    2.6202    0.6621    0.7333 H   0  0  0  0  0  0  0  0  0  0  0  0
    1.2826   -0.4612   -0.6201 C   0  0  0  0  0  0  0  0  0  0  0  0
    1.6590   -1.4081   -1.0039 H   0  0  0  0  0  0  0  0  0  0  0  0
    0.3429    0.2623   -1.6209 C   0  0  0  0  0  0  0  0  0  0  0  0
    0.2345   -0.2548   -2.5743 H   0  0  0  0  0  0  0  0  0  0  0  0
   -1.0239    0.2631   -0.8755 C   0  0  0  0  0  0  0  0  0  0  0  0
   -0.8782    1.1951    0.3108 C   0  0  0  0  0  0  0  0  0  0  0  0
   -0.0529    0.5984    1.1812 C   0  0  0  0  0  0  0  0  0  0  0  0
    0.3478   -0.7366    0.5842 C   0  0  0  0  0  0  0  0  0  0  0  0
   -0.9673   -1.0975   -0.1459 C   0  0  0  0  0  0  0  0  0  0  0  0
   -2.3303   -1.3580    0.9609 Cl  0  0  0  0  0  0  0  0  0  0  0  0
   -0.8531   -2.4887   -1.2135 Cl  0  0  0  0  0  0  0  0  0  0  0  0
    0.9470   -1.9204    1.7347 Cl  0  0  0  0  0  0  0  0  0  0  0  0
    0.5344    1.1773    2.6593 Cl  0  0  0  0  0  0  0  0  0  0  0  0
   -1.5856    2.7260    0.3903 Cl  0  0  0  0  0  0  0  0  0  0  0  0
   -2.4302    0.5422   -1.8839 Cl  0  0  0  0  0  0  0  0  0  0  0  0
    3.9818   -0.1239   -0.9979 Cl  0  0  0  0  0  0  0  0  0  0  0  0
    0.4882    2.3700   -2.3936 H   0  0  0  0  0  0  0  0  0  0  0  0
    2.6736    2.6401   -1.0065 H   0  0  0  0  0  0  0  0  0  0  0  0
  1  2  2  0  0  0  0
  2  3  1  0  0  0  0
  3  4  1  0  0  0  0
  3  5  1  0  0  0  0
  5  6  1  0  0  0  0
  1  7  1  0  0  0  0
  5  7  1  0  0  0  0
  7  8  1  0  0  0  0
  7  9  1  0  0  0  0
  9 10  1  0  0  0  0
 10 11  2  0  0  0  0
  5 12  1  0  0  0  0
 11 12  1  0  0  0  0
  9 13  1  0  0  0  0
 12 13  1  0  0  0  0
 13 14  1  0  0  0  0
 13 15  1  0  0  0  0
 12 16  1  0  0  0  0
 11 17  1  0  0  0  0
 10 18  1  0  0  0  0
  9 19  1  0  0  0  0
  3 20  1  0  0  0  0
  1 21  1  0  0  0  0
  2 22  1  0  0  0  0
M  END
