  22
 
 C          3.3726909773       -0.1265686322        0.0281781663
 N          1.9521068052       -0.3999040134        0.0022295016
 C          1.5984362207       -1.7999466264        0.0160827122
 C          1.0695252934        0.6049310813       -0.0245156317
 O          1.4088897230        1.7929522586       -0.0451835634
 C         -0.3840336940        0.2398221086       -0.0294243586
 C         -1.0965814543        0.2584109634       -1.2220689115
 C         -2.4552334793       -0.0068848633       -1.2216417711
 C         -3.1096057569       -0.2804202812       -0.0321625687
 C         -2.4041805274       -0.2866021268        1.1599537806
 C         -1.0447468539       -0.0268664346        1.1644252441
 H          3.8550722585       -0.5806461152       -0.8377874923
 H          3.8138751614       -0.5305595325        0.9399753794
 H          3.5145552140        0.9520657470        0.0013861817
 H          1.9312865219       -2.2566230566        0.9499454812
 H          2.0915755521       -2.3053756904       -0.8154170651
 H          0.5235579102       -1.9211263941       -0.0791102658
 H         -0.5822019471        0.4825221678       -2.1448800005
 H         -3.0022648271        0.0043371356       -2.1518454349
 H         -4.1693462755       -0.4837816924       -0.0335986995
 H         -2.9124203616       -0.4927480814        2.0893507598
 H         -0.4919922287       -0.0253695997        2.0921000360
          22
        -31.87701294
 C          3.3659507071       -0.1107373644       -0.0112611952
 N          1.9487283739       -0.3509793325       -0.1772727611
 C          1.6158400231       -1.5965247999       -0.8293946875
 C          1.0580545930        0.5646088086        0.2251166402
 O          1.3957086056        1.6533110924        0.7044810247
 C         -0.3927322849        0.2264835067        0.0906583229
 C         -0.9576690531       -0.8024774527        0.8377879297
 C         -2.3175659198       -1.0461604760        0.7633038839
 C         -3.1198749615       -0.2701027433       -0.0574381077
 C         -2.5625616047        0.7616072509       -0.7943228818
 C         -1.2046420341        1.0170069016       -0.7135498026
 H          3.8113195510       -0.9193053756        0.5687582355
 H          3.4949735828        0.8327763882        0.5152070476
 H          3.8555011453       -0.0524714130       -0.9843063753
 H          2.2203223556       -1.6959644146       -1.7317753291
 H          0.5648555133       -1.6165083240       -1.1017795840
 H          1.8344001585       -2.4380235644       -0.1689932414
 H         -0.3323725744       -1.4010036850        1.4830412107
 H         -2.7515779598       -1.8433174566        1.3469701738
 H         -4.1795793302       -0.4649203783       -0.1172678636
 H         -3.1851013593        1.3737065016       -1.4287134512
 H         -0.7625261352        1.8290126806       -1.2719915506
