 xtb: 6.7.1 (edcfbbe)
          04092505203D

 41 40  0     0  0            999 V2000
    4.9765    1.1662    0.1414 C   0  0  0  0  0  0  0  0  0  0  0  0
    3.7244    1.4344   -0.6661 C   0  0  0  0  0  0  0  0  0  0  0  0
    2.9407    0.2352   -0.8440 O   0  0  0  0  0  0  0  0  0  0  0  0
    2.1503   -0.4269    0.3560 P   0  0  0  0  0  0  0  0  0  0  0  0
    1.5299    0.7870    1.7704 S   0  0  0  0  0  0  0  0  0  0  0  0
    3.1789   -1.5208    0.8848 O   0  0  0  0  0  0  0  0  0  0  0  0
    3.0021   -2.1819    2.1467 C   0  0  0  0  0  0  0  0  0  0  0  0
    1.8129   -3.1208    2.1215 C   0  0  0  0  0  0  0  0  0  0  0  0
    0.7781   -1.5947   -0.7733 S   0  0  0  0  0  0  0  0  0  0  0  0
    0.3445   -0.4093   -2.0768 C   0  0  0  0  0  0  0  0  0  0  0  0
   -0.2688    1.1737   -1.4381 S   0  0  0  0  0  0  0  0  0  0  0  0
   -2.0077    0.4001   -0.5237 P   0  0  0  0  0  0  0  0  0  0  0  0
   -2.9223   -1.0383   -1.4970 S   0  0  0  0  0  0  0  0  0  0  0  0
   -2.8817    1.6955   -0.2537 O   0  0  0  0  0  0  0  0  0  0  0  0
   -3.6764    2.3076   -1.2906 C   0  0  0  0  0  0  0  0  0  0  0  0
   -4.7444    3.1507   -0.6238 C   0  0  0  0  0  0  0  0  0  0  0  0
   -1.4724    0.0555    0.9201 O   0  0  0  0  0  0  0  0  0  0  0  0
   -2.1216   -0.9010    1.7823 C   0  0  0  0  0  0  0  0  0  0  0  0
   -3.4949   -0.4290    2.2074 C   0  0  0  0  0  0  0  0  0  0  0  0
    5.5429    0.3525   -0.3035 H   0  0  0  0  0  0  0  0  0  0  0  0
    5.5873    2.0631    0.1673 H   0  0  0  0  0  0  0  0  0  0  0  0
    4.7063    0.8916    1.1602 H   0  0  0  0  0  0  0  0  0  0  0  0
    3.9557    1.7499   -1.6842 H   0  0  0  0  0  0  0  0  0  0  0  0
    3.0992    2.1881   -0.1765 H   0  0  0  0  0  0  0  0  0  0  0  0
    3.9392   -2.7178    2.3014 H   0  0  0  0  0  0  0  0  0  0  0  0
    2.8738   -1.4190    2.9223 H   0  0  0  0  0  0  0  0  0  0  0  0
    1.7390   -3.6429    3.0700 H   0  0  0  0  0  0  0  0  0  0  0  0
    0.8987   -2.5487    1.9577 H   0  0  0  0  0  0  0  0  0  0  0  0
    1.9161   -3.8425    1.3152 H   0  0  0  0  0  0  0  0  0  0  0  0
   -0.4392   -0.8909   -2.6631 H   0  0  0  0  0  0  0  0  0  0  0  0
    1.2188   -0.1908   -2.6838 H   0  0  0  0  0  0  0  0  0  0  0  0
   -3.0142    2.9181   -1.9103 H   0  0  0  0  0  0  0  0  0  0  0  0
   -4.1152    1.5152   -1.9066 H   0  0  0  0  0  0  0  0  0  0  0  0
   -4.2805    3.8923    0.0199 H   0  0  0  0  0  0  0  0  0  0  0  0
   -5.3301    3.6515   -1.3875 H   0  0  0  0  0  0  0  0  0  0  0  0
   -5.3981    2.5238   -0.0240 H   0  0  0  0  0  0  0  0  0  0  0  0
   -2.1818   -1.8575    1.2522 H   0  0  0  0  0  0  0  0  0  0  0  0
   -1.4397   -0.9852    2.6306 H   0  0  0  0  0  0  0  0  0  0  0  0
   -3.9132   -1.1321    2.9208 H   0  0  0  0  0  0  0  0  0  0  0  0
   -3.4267    0.5559    2.6623 H   0  0  0  0  0  0  0  0  0  0  0  0
   -4.1491   -0.3730    1.3377 H   0  0  0  0  0  0  0  0  0  0  0  0
  1  2  1  0  0  0  0
  2  3  1  0  0  0  0
  3  4  2  0  0  0  0
  4  5  2  0  0  0  0
  4  6  2  0  0  0  0
  6  7  1  0  0  0  0
  7  8  1  0  0  0  0
  4  9  1  0  0  0  0
  9 10  1  0  0  0  0
 10 11  1  0  0  0  0
 11 12  1  0  0  0  0
 12 13  2  0  0  0  0
 12 14  2  0  0  0  0
 14 15  1  0  0  0  0
 15 16  1  0  0  0  0
 12 17  2  0  0  0  0
 17 18  1  0  0  0  0
 18 19  1  0  0  0  0
  1 20  1  0  0  0  0
  1 21  1  0  0  0  0
  1 22  1  0  0  0  0
  2 23  1  0  0  0  0
  2 24  1  0  0  0  0
  7 25  1  0  0  0  0
  7 26  1  0  0  0  0
  8 27  1  0  0  0  0
  8 28  1  0  0  0  0
  8 29  1  0  0  0  0
 10 30  1  0  0  0  0
 10 31  1  0  0  0  0
 15 32  1  0  0  0  0
 15 33  1  0  0  0  0
 16 34  1  0  0  0  0
 16 35  1  0  0  0  0
 16 36  1  0  0  0  0
 18 37  1  0  0  0  0
 18 38  1  0  0  0  0
 19 39  1  0  0  0  0
 19 40  1  0  0  0  0
 19 41  1  0  0  0  0
M  END
