 xtb: 6.7.1 (edcfbbe)
          04092507313D

 38 37  0     0  0            999 V2000
    3.1117   -3.9326    0.1455 C   0  0  0  0  0  0  0  0  0  0  0  0
    2.7168   -2.5309    0.5654 C   0  0  0  0  0  0  0  0  0  0  0  0
    2.2086   -1.8458   -0.5954 O   0  0  0  0  0  0  0  0  0  0  0  0
    2.0404   -0.5475   -0.5341 C   0  0  0  0  0  0  0  0  0  0  0  0
    2.2733    0.1402    0.4418 O   0  0  0  0  0  0  0  0  0  0  0  0
    1.5589    0.0321   -1.8514 C   0  0  0  0  0  0  0  0  0  0  0  0
    0.3396    0.9366   -1.6444 C   0  0  0  0  0  0  0  0  0  0  0  0
    0.2424    1.6261   -2.4861 H   0  0  0  0  0  0  0  0  0  0  0  0
    0.4568    1.7322   -0.3585 C   0  0  0  0  0  0  0  0  0  0  0  0
   -0.2806    1.5423    0.5947 O   0  0  0  0  0  0  0  0  0  0  0  0
    1.3677    2.6545   -0.4297 O   0  0  0  0  0  0  0  0  0  0  0  0
    1.6497    3.4253    0.7585 C   0  0  0  0  0  0  0  0  0  0  0  0
    2.5618    4.5691    0.3643 C   0  0  0  0  0  0  0  0  0  0  0  0
   -1.2245    0.0042   -1.6139 S   0  0  0  0  0  0  0  0  0  0  0  0
   -1.7133   -0.4020    0.4225 P   0  0  0  0  0  0  0  0  0  0  0  0
   -0.4596   -1.1956    1.7052 S   0  0  0  0  0  0  0  0  0  0  0  0
   -2.6726    0.7256    0.9916 O   0  0  0  0  0  0  0  0  0  0  0  0
   -3.8970    1.1005    0.3330 C   0  0  0  0  0  0  0  0  0  0  0  0
   -2.8575   -1.4901    0.0630 O   0  0  0  0  0  0  0  0  0  0  0  0
   -2.5366   -2.8184   -0.3496 C   0  0  0  0  0  0  0  0  0  0  0  0
    2.2482   -4.4556   -0.2535 H   0  0  0  0  0  0  0  0  0  0  0  0
    3.8843   -3.8911   -0.6166 H   0  0  0  0  0  0  0  0  0  0  0  0
    3.4867   -4.4695    1.0101 H   0  0  0  0  0  0  0  0  0  0  0  0
    3.5656   -1.9610    0.9561 H   0  0  0  0  0  0  0  0  0  0  0  0
    1.9283   -2.5350    1.3257 H   0  0  0  0  0  0  0  0  0  0  0  0
    1.3207   -0.7729   -2.5451 H   0  0  0  0  0  0  0  0  0  0  0  0
    2.3760    0.6360   -2.2520 H   0  0  0  0  0  0  0  0  0  0  0  0
    0.7012    3.7748    1.1779 H   0  0  0  0  0  0  0  0  0  0  0  0
    2.1207    2.7485    1.4784 H   0  0  0  0  0  0  0  0  0  0  0  0
    3.4806    4.1791   -0.0624 H   0  0  0  0  0  0  0  0  0  0  0  0
    2.0720    5.2039   -0.3679 H   0  0  0  0  0  0  0  0  0  0  0  0
    2.7976    5.1548    1.2464 H   0  0  0  0  0  0  0  0  0  0  0  0
   -4.2109    2.0180    0.8246 H   0  0  0  0  0  0  0  0  0  0  0  0
   -4.6392    0.3149    0.4629 H   0  0  0  0  0  0  0  0  0  0  0  0
   -3.7196    1.2715   -0.7292 H   0  0  0  0  0  0  0  0  0  0  0  0
   -3.4525   -3.3924   -0.2340 H   0  0  0  0  0  0  0  0  0  0  0  0
   -1.7489   -3.2258    0.2876 H   0  0  0  0  0  0  0  0  0  0  0  0
   -2.2125   -2.8162   -1.3902 H   0  0  0  0  0  0  0  0  0  0  0  0
  1  2  1  0  0  0  0
  2  3  1  0  0  0  0
  3  4  4  0  0  0  0
  4  5  2  0  0  0  0
  4  6  1  0  0  0  0
  6  7  1  0  0  0  0
  7  8  1  0  0  0  0
  7  9  1  0  0  0  0
  9 10  2  0  0  0  0
  9 11  4  0  0  0  0
 11 12  1  0  0  0  0
 12 13  1  0  0  0  0
  7 14  1  0  0  0  0
 14 15  1  0  0  0  0
 15 16  2  0  0  0  0
 15 17  2  0  0  0  0
 17 18  1  0  0  0  0
 15 19  1  0  0  0  0
 19 20  1  0  0  0  0
  1 21  1  0  0  0  0
  1 22  1  0  0  0  0
  1 23  1  0  0  0  0
  2 24  1  0  0  0  0
  2 25  1  0  0  0  0
  6 26  1  0  0  0  0
  6 27  1  0  0  0  0
 12 28  1  0  0  0  0
 12 29  1  0  0  0  0
 13 30  1  0  0  0  0
 13 31  1  0  0  0  0
 13 32  1  0  0  0  0
 18 33  1  0  0  0  0
 18 34  1  0  0  0  0
 18 35  1  0  0  0  0
 20 36  1  0  0  0  0
 20 37  1  0  0  0  0
 20 38  1  0  0  0  0
M  END
