 xtb: 6.7.1 (edcfbbe)
          04092505213D

 41 40  0     0  0            999 V2000
    2.7046   -0.8668   -2.7695 C   0  0  0  0  0  0  0  0  0  0  0  0
    1.6357    0.0213   -2.1710 C   0  0  0  0  0  0  0  0  0  0  0  0
    1.0984   -0.5352   -0.9553 O   0  0  0  0  0  0  0  0  0  0  0  0
    1.9708   -0.6101    0.3761 P   0  0  0  0  0  0  0  0  0  0  0  0
    3.3173    0.7959    0.6325 S   0  0  0  0  0  0  0  0  0  0  0  0
    2.5531   -2.0843    0.2732 O   0  0  0  0  0  0  0  0  0  0  0  0
    3.6610   -2.5352    1.0732 C   0  0  0  0  0  0  0  0  0  0  0  0
    3.2943   -2.6521    2.5385 C   0  0  0  0  0  0  0  0  0  0  0  0
    0.4364   -0.8140    1.8033 S   0  0  0  0  0  0  0  0  0  0  0  0
   -0.0036    0.9400    2.0093 C   0  0  0  0  0  0  0  0  0  0  0  0
   -0.0912    1.8764    0.4556 S   0  0  0  0  0  0  0  0  0  0  0  0
   -1.8141    1.0282   -0.4278 P   0  0  0  0  0  0  0  0  0  0  0  0
   -1.9032    1.3038   -2.3650 S   0  0  0  0  0  0  0  0  0  0  0  0
   -2.8728    1.7435    0.5167 O   0  0  0  0  0  0  0  0  0  0  0  0
   -4.2479    1.3217    0.6482 C   0  0  0  0  0  0  0  0  0  0  0  0
   -5.0561    1.6063   -0.6010 C   0  0  0  0  0  0  0  0  0  0  0  0
   -1.9523   -0.4858    0.0362 O   0  0  0  0  0  0  0  0  0  0  0  0
   -1.8001   -1.6316   -0.8165 C   0  0  0  0  0  0  0  0  0  0  0  0
   -3.0721   -2.4540   -0.7595 C   0  0  0  0  0  0  0  0  0  0  0  0
    3.0051   -0.4645   -3.7318 H   0  0  0  0  0  0  0  0  0  0  0  0
    3.5715   -0.8962   -2.1104 H   0  0  0  0  0  0  0  0  0  0  0  0
    2.3237   -1.8762   -2.8999 H   0  0  0  0  0  0  0  0  0  0  0  0
    0.7689    0.1202   -2.8282 H   0  0  0  0  0  0  0  0  0  0  0  0
    2.0327    1.0180   -1.9484 H   0  0  0  0  0  0  0  0  0  0  0  0
    3.9179   -3.5034    0.6417 H   0  0  0  0  0  0  0  0  0  0  0  0
    4.4910   -1.8339    0.9402 H   0  0  0  0  0  0  0  0  0  0  0  0
    3.1034   -1.6633    2.9535 H   0  0  0  0  0  0  0  0  0  0  0  0
    2.4013   -3.2603    2.6578 H   0  0  0  0  0  0  0  0  0  0  0  0
    4.1176   -3.1076    3.0792 H   0  0  0  0  0  0  0  0  0  0  0  0
    0.7676    1.4364    2.5957 H   0  0  0  0  0  0  0  0  0  0  0  0
   -0.9645    0.9648    2.5172 H   0  0  0  0  0  0  0  0  0  0  0  0
   -4.2625    0.2566    0.8915 H   0  0  0  0  0  0  0  0  0  0  0  0
   -4.6119    1.9021    1.4977 H   0  0  0  0  0  0  0  0  0  0  0  0
   -4.9956    2.6612   -0.8568 H   0  0  0  0  0  0  0  0  0  0  0  0
   -4.6731    1.0294   -1.4413 H   0  0  0  0  0  0  0  0  0  0  0  0
   -6.0935    1.3375   -0.4277 H   0  0  0  0  0  0  0  0  0  0  0  0
   -1.5944   -1.2899   -1.8363 H   0  0  0  0  0  0  0  0  0  0  0  0
   -0.9419   -2.1932   -0.4397 H   0  0  0  0  0  0  0  0  0  0  0  0
   -2.9393   -3.3522   -1.3534 H   0  0  0  0  0  0  0  0  0  0  0  0
   -3.2898   -2.7320    0.2679 H   0  0  0  0  0  0  0  0  0  0  0  0
   -3.9063   -1.8834   -1.1610 H   0  0  0  0  0  0  0  0  0  0  0  0
  1  2  1  0  0  0  0
  2  3  1  0  0  0  0
  3  4  1  0  0  0  0
  4  5  2  0  0  0  0
  4  6  2  0  0  0  0
  6  7  1  0  0  0  0
  7  8  1  0  0  0  0
  4  9  1  0  0  0  0
  9 10  1  0  0  0  0
 10 11  1  0  0  0  0
 11 12  1  0  0  0  0
 12 13  2  0  0  0  0
 12 14  2  0  0  0  0
 14 15  1  0  0  0  0
 15 16  1  0  0  0  0
 12 17  2  0  0  0  0
 17 18  1  0  0  0  0
 18 19  1  0  0  0  0
  1 20  1  0  0  0  0
  1 21  1  0  0  0  0
  1 22  1  0  0  0  0
  2 23  1  0  0  0  0
  2 24  1  0  0  0  0
  7 25  1  0  0  0  0
  7 26  1  0  0  0  0
  8 27  1  0  0  0  0
  8 28  1  0  0  0  0
  8 29  1  0  0  0  0
 10 30  1  0  0  0  0
 10 31  1  0  0  0  0
 15 32  1  0  0  0  0
 15 33  1  0  0  0  0
 16 34  1  0  0  0  0
 16 35  1  0  0  0  0
 16 36  1  0  0  0  0
 18 37  1  0  0  0  0
 18 38  1  0  0  0  0
 19 39  1  0  0  0  0
 19 40  1  0  0  0  0
 19 41  1  0  0  0  0
M  END
