38
 xtb: 6.7.1 (edcfbbe)
C            1.88705714592379       -3.45179469642268       -2.56933072752783
C            3.14035464791585       -2.92230788160521       -1.91299038280360
O            2.86164934031722       -1.67561060249150       -1.19099356485951
C            2.33895224765801       -1.78505236125636        0.03930364826470
O            2.13910491512148       -2.84398253212691        0.60847562118061
C            2.05602821318149       -0.43648892225207        0.64907182919646
C            1.22621331093427        0.46226057814349       -0.26419236993393
H            1.79901433528383        0.70684415894230       -1.16884974690395
C            0.92100641558489        1.79901789438483        0.39646988546609
O            1.55556126841735        2.21669166116010        1.34597220606444
O           -0.05204596151450        2.45968674279052       -0.22637537840024
C           -0.42734719523241        3.77012764078178        0.31671746775334
C            0.47895808330615        4.85212042139420       -0.21884910354120
S           -0.25242964961150       -0.42140398579573       -0.96738578081181
P           -1.75564217307268       -0.21921686385315        0.51904200847214
S           -1.16828698801738       -0.05645491672569        2.36138661561610
O           -2.71971764588916        0.99679729950381        0.11573478282809
C           -3.16838756442307        1.20541901365696       -1.25614686285369
O           -2.67643492842603       -1.48319344923291        0.12217942714748
C           -2.24602930988539       -2.82883436400644        0.47948486411231
H            2.14092357890220       -4.34775409413338       -3.14480159839333
H            1.13062464197705       -3.72284911178605       -1.82738708543145
H            1.46529070284247       -2.71170869944294       -3.25570302191248
H            3.89005752644376       -2.63199488413574       -2.65118003363170
H            3.57887840192381       -3.63887273078670       -1.21410556297872
H            3.01538805087313        0.05698943787908        0.84476893254100
H            1.54726243764934       -0.59562314756088        1.59992872024286
H           -1.45739702137248        3.89973366897871       -0.02140892761994
H           -0.40718656856470        3.70834606989068        1.40760106186605
H            0.12876831785188        5.82048904217070        0.15213456623253
H            1.51113589016523        4.70985434669160        0.11193311752725
H            0.45248025871024        4.87392369068052       -1.31201193081757
H           -2.32606776206071        1.51677914398084       -1.87878139289206
H           -3.90769266018429        2.00450702493114       -1.19849893750330
H           -3.62826313360395        0.29729007999769       -1.65399691375309
H           -1.23661977756193       -3.02316712166488        0.10424065206588
H           -2.95818756437693       -3.50059905616505        0.00077356398305
H           -2.27871737488324       -2.94989885384981        1.56487823009152
