  24
 
 C         -3.6267389914        0.2302536035       -0.0036783038
 C         -2.1363801506        0.0735381378        0.0136355883
 C         -1.5499815373       -1.1848991561        0.0149906566
 C         -0.1738976617       -1.3263195014        0.0098189568
 C          0.6609258446       -0.2168874724        0.0028191086
 C          0.0726515184        1.0422337141        0.0011024948
 C         -1.3019950218        1.1844555544        0.0062871260
 C          2.1609993911       -0.3827473538        0.0004297361
 C          2.7789850345        0.2333204407        1.2578183629
 C          2.7756604918        0.2284657983       -1.2609108395
 H         -3.9836896778        0.2677653273       -1.0330215583
 H         -4.1096427667       -0.6093583228        0.4902071123
 H         -3.9240685558        1.1522270475        0.4899317871
 H         -2.1770064093       -2.0652842780        0.0216391459
 H          0.2580090082       -2.3175691909        0.0128735678
 H          0.6920504409        1.9269222215       -0.0026736669
 H         -1.7356483970        2.1745680657        0.0061143448
 H          2.3836717994       -1.4559033613        0.0021807266
 H          3.8509841015        0.0521700705        1.2769426663
 H          2.3363908782       -0.2043134591        2.1497342607
 H          2.6112103734        1.3068104402        1.2834055021
 H          3.8482324857        0.0505918955       -1.2798711380
 H          2.6045349795        1.3012645969       -1.2924648061
 H          2.3338900552       -0.2155891663       -2.1500615273
          24
        -28.55255784
 C         -3.6331997780       -0.2368633807        0.0043805583
 C         -2.1439021276       -0.0688644545       -0.0027431100
 C         -1.3101470177       -1.1819183656       -0.0024634353
 C          0.0637802655       -1.0420237474       -0.0016830753
 C          0.6539539836        0.2171122338       -0.0011243650
 C         -0.1791667928        1.3269695972       -0.0018741809
 C         -1.5564080736        1.1876883394       -0.0026100499
 C          2.1542100867        0.3816205874        0.0006436994
 C          2.7723209065       -0.2335974531       -1.2570790812
 C          2.7679348158       -0.2313367201        1.2616834355
 H         -3.9465875265       -0.8847674347       -0.8122524669
 H         -3.9547089031       -0.6979334145        0.9374735762
 H         -4.1324993131        0.7229620372       -0.0976243567
 H         -1.7472925906       -2.1705080377       -0.0030643858
 H          0.6825205046       -1.9272553454       -0.0018349167
 H          0.2537386123        2.3178242117       -0.0018614798
 H         -2.1807439479        2.0700942207       -0.0030252763
 H          2.3774184856        1.4546240414        0.0000641879
 H          2.6017074134       -1.3067184169       -1.2852020610
 H          3.8449675285       -0.0551629952       -1.2738174201
 H          2.3324302657        0.2074005111       -2.1488524430
 H          2.5980071424       -1.3045391695        1.2905152839
 H          2.3240368631        0.2104517374        2.1510649303
 H          3.8403496865       -0.0520352840        1.2826134934
