 xtb: 6.7.1 (edcfbbe)
          04092509473D

 38 37  0     0  0            999 V2000
    2.5531   -3.0773    0.3541 C   0  0  0  0  0  0  0  0  0  0  0  0
    3.2131   -2.7842   -0.9840 C   0  0  0  0  0  0  0  0  0  0  0  0
    2.3694   -1.9464   -1.7998 O   0  0  0  0  0  0  0  0  0  0  0  0
    2.3598   -0.6521   -1.5722 C   0  0  0  0  0  0  0  0  0  0  0  0
    3.0551   -0.0854   -0.7555 O   0  0  0  0  0  0  0  0  0  0  0  0
    1.3324    0.0624   -2.4313 C   0  0  0  0  0  0  0  0  0  0  0  0
    0.2196    0.5733   -1.5091 C   0  0  0  0  0  0  0  0  0  0  0  0
   -0.5196    1.1335   -2.0888 H   0  0  0  0  0  0  0  0  0  0  0  0
    0.8232    1.5225   -0.4872 C   0  0  0  0  0  0  0  0  0  0  0  0
    1.2717    2.5957   -0.8197 O   0  0  0  0  0  0  0  0  0  0  0  0
    0.8252    1.0627    0.7460 O   0  0  0  0  0  0  0  0  0  0  0  0
    1.4997    1.8838    1.7256 C   0  0  0  0  0  0  0  0  0  0  0  0
    1.4676    1.1847    3.0681 C   0  0  0  0  0  0  0  0  0  0  0  0
   -0.6089   -0.8585   -0.7436 S   0  0  0  0  0  0  0  0  0  0  0  0
   -2.0012    0.1784    0.4765 P   0  0  0  0  0  0  0  0  0  0  0  0
   -2.3523    2.0475    0.0075 S   0  0  0  0  0  0  0  0  0  0  0  0
   -3.2818   -0.7824    0.4269 O   0  0  0  0  0  0  0  0  0  0  0  0
   -4.0927   -0.9138   -0.7469 C   0  0  0  0  0  0  0  0  0  0  0  0
   -1.5673   -0.0148    1.9811 O   0  0  0  0  0  0  0  0  0  0  0  0
   -1.2379   -1.3181    2.5057 C   0  0  0  0  0  0  0  0  0  0  0  0
    1.5834   -3.5419    0.1980 H   0  0  0  0  0  0  0  0  0  0  0  0
    3.1870   -3.7442    0.9291 H   0  0  0  0  0  0  0  0  0  0  0  0
    2.4178   -2.1520    0.9101 H   0  0  0  0  0  0  0  0  0  0  0  0
    3.3420   -3.6918   -1.5730 H   0  0  0  0  0  0  0  0  0  0  0  0
    4.1732   -2.2799   -0.8415 H   0  0  0  0  0  0  0  0  0  0  0  0
    0.9252   -0.6261   -3.1694 H   0  0  0  0  0  0  0  0  0  0  0  0
    1.8011    0.9220   -2.9127 H   0  0  0  0  0  0  0  0  0  0  0  0
    2.5229    2.0361    1.3670 H   0  0  0  0  0  0  0  0  0  0  0  0
    0.9931    2.8538    1.7563 H   0  0  0  0  0  0  0  0  0  0  0  0
    0.4406    1.0623    3.3985 H   0  0  0  0  0  0  0  0  0  0  0  0
    1.9438    0.2114    2.9943 H   0  0  0  0  0  0  0  0  0  0  0  0
    2.0060    1.7910    3.7893 H   0  0  0  0  0  0  0  0  0  0  0  0
   -3.5348   -1.4245   -1.5316 H   0  0  0  0  0  0  0  0  0  0  0  0
   -4.4132    0.0691   -1.0946 H   0  0  0  0  0  0  0  0  0  0  0  0
   -4.9519   -1.5064   -0.4419 H   0  0  0  0  0  0  0  0  0  0  0  0
   -2.1011   -1.9765    2.4367 H   0  0  0  0  0  0  0  0  0  0  0  0
   -0.9616   -1.1497    3.5429 H   0  0  0  0  0  0  0  0  0  0  0  0
   -0.4007   -1.7364    1.9473 H   0  0  0  0  0  0  0  0  0  0  0  0
  1  2  1  0  0  0  0
  2  3  1  0  0  0  0
  3  4  4  0  0  0  0
  4  5  2  0  0  0  0
  4  6  1  0  0  0  0
  6  7  1  0  0  0  0
  7  8  1  0  0  0  0
  7  9  1  0  0  0  0
  9 10  2  0  0  0  0
  9 11  1  0  0  0  0
 11 12  1  0  0  0  0
 12 13  1  0  0  0  0
  7 14  1  0  0  0  0
 14 15  1  0  0  0  0
 15 16  2  0  0  0  0
 15 17  1  0  0  0  0
 17 18  1  0  0  0  0
 15 19  2  0  0  0  0
 19 20  1  0  0  0  0
  1 21  1  0  0  0  0
  1 22  1  0  0  0  0
  1 23  1  0  0  0  0
  2 24  1  0  0  0  0
  2 25  1  0  0  0  0
  6 26  1  0  0  0  0
  6 27  1  0  0  0  0
 12 28  1  0  0  0  0
 12 29  1  0  0  0  0
 13 30  1  0  0  0  0
 13 31  1  0  0  0  0
 13 32  1  0  0  0  0
 18 33  1  0  0  0  0
 18 34  1  0  0  0  0
 18 35  1  0  0  0  0
 20 36  1  0  0  0  0
 20 37  1  0  0  0  0
 20 38  1  0  0  0  0
M  END
