 xtb: 6.7.1 (edcfbbe)
          04092507313D

 38 37  0     0  0            999 V2000
    4.1507   -3.8411   -0.6403 C   0  0  0  0  0  0  0  0  0  0  0  0
    2.6377   -3.7063   -0.7097 C   0  0  0  0  0  0  0  0  0  0  0  0
    2.2088   -2.4296   -0.1970 O   0  0  0  0  0  0  0  0  0  0  0  0
    2.2257   -1.3926   -1.0092 C   0  0  0  0  0  0  0  0  0  0  0  0
    2.5356   -1.4332   -2.1784 O   0  0  0  0  0  0  0  0  0  0  0  0
    1.7830   -0.1262   -0.2985 C   0  0  0  0  0  0  0  0  0  0  0  0
    0.7135    0.5737   -1.1347 C   0  0  0  0  0  0  0  0  0  0  0  0
    1.0986    0.7379   -2.1457 H   0  0  0  0  0  0  0  0  0  0  0  0
    0.2934    1.8951   -0.5258 C   0  0  0  0  0  0  0  0  0  0  0  0
   -0.8589    2.1288   -0.2130 O   0  0  0  0  0  0  0  0  0  0  0  0
    1.2928    2.7157   -0.3901 O   0  0  0  0  0  0  0  0  0  0  0  0
    1.0622    3.9796    0.2747 C   0  0  0  0  0  0  0  0  0  0  0  0
    1.2280    3.8212    1.7770 C   0  0  0  0  0  0  0  0  0  0  0  0
   -0.7754   -0.4585   -1.3541 S   0  0  0  0  0  0  0  0  0  0  0  0
   -1.8279   -0.0965    0.4627 P   0  0  0  0  0  0  0  0  0  0  0  0
   -0.8674    0.3153    2.1312 S   0  0  0  0  0  0  0  0  0  0  0  0
   -3.1698    0.6857    0.1500 O   0  0  0  0  0  0  0  0  0  0  0  0
   -3.5038    1.9932    0.6200 C   0  0  0  0  0  0  0  0  0  0  0  0
   -2.5679   -1.5174    0.5687 O   0  0  0  0  0  0  0  0  0  0  0  0
   -1.8376   -2.7045    0.8811 C   0  0  0  0  0  0  0  0  0  0  0  0
    4.4366   -4.8366   -0.9633 H   0  0  0  0  0  0  0  0  0  0  0  0
    4.6215   -3.1097   -1.2929 H   0  0  0  0  0  0  0  0  0  0  0  0
    4.4940   -3.6820    0.3782 H   0  0  0  0  0  0  0  0  0  0  0  0
    2.1437   -4.4365   -0.0689 H   0  0  0  0  0  0  0  0  0  0  0  0
    2.2867   -3.8016   -1.7412 H   0  0  0  0  0  0  0  0  0  0  0  0
    2.6433    0.5402   -0.2070 H   0  0  0  0  0  0  0  0  0  0  0  0
    1.4128   -0.3775    0.6965 H   0  0  0  0  0  0  0  0  0  0  0  0
    1.8152    4.6463   -0.1446 H   0  0  0  0  0  0  0  0  0  0  0  0
    0.0571    4.3283    0.0258 H   0  0  0  0  0  0  0  0  0  0  0  0
    2.2335    3.4856    2.0130 H   0  0  0  0  0  0  0  0  0  0  0  0
    1.0461    4.7750    2.2606 H   0  0  0  0  0  0  0  0  0  0  0  0
    0.5191    3.0896    2.1614 H   0  0  0  0  0  0  0  0  0  0  0  0
   -2.9216    2.2403    1.5091 H   0  0  0  0  0  0  0  0  0  0  0  0
   -4.5651    1.9632    0.8576 H   0  0  0  0  0  0  0  0  0  0  0  0
   -3.3012    2.7193   -0.1650 H   0  0  0  0  0  0  0  0  0  0  0  0
   -1.2329   -2.5490    1.7773 H   0  0  0  0  0  0  0  0  0  0  0  0
   -1.1946   -2.9847    0.0455 H   0  0  0  0  0  0  0  0  0  0  0  0
   -2.5872   -3.4714    1.0580 H   0  0  0  0  0  0  0  0  0  0  0  0
  1  2  1  0  0  0  0
  2  3  1  0  0  0  0
  3  4  1  0  0  0  0
  4  5  2  0  0  0  0
  4  6  1  0  0  0  0
  6  7  1  0  0  0  0
  7  8  1  0  0  0  0
  7  9  1  0  0  0  0
  9 10  2  0  0  0  0
  9 11  4  0  0  0  0
 11 12  1  0  0  0  0
 12 13  1  0  0  0  0
  7 14  1  0  0  0  0
 14 15  1  0  0  0  0
 15 16  2  0  0  0  0
 15 17  2  0  0  0  0
 17 18  1  0  0  0  0
 15 19  1  0  0  0  0
 19 20  1  0  0  0  0
  1 21  1  0  0  0  0
  1 22  1  0  0  0  0
  1 23  1  0  0  0  0
  2 24  1  0  0  0  0
  2 25  1  0  0  0  0
  6 26  1  0  0  0  0
  6 27  1  0  0  0  0
 12 28  1  0  0  0  0
 12 29  1  0  0  0  0
 13 30  1  0  0  0  0
 13 31  1  0  0  0  0
 13 32  1  0  0  0  0
 18 33  1  0  0  0  0
 18 34  1  0  0  0  0
 18 35  1  0  0  0  0
 20 36  1  0  0  0  0
 20 37  1  0  0  0  0
 20 38  1  0  0  0  0
M  END
