  22
 
 C          4.2155174820        0.5188051824        0.0025619112
 C          3.0104287687       -0.4144033922        0.0001358474
 C          1.6932259095        0.3584860584       -0.0000069669
 C          0.4809815436       -0.5697224138       -0.0002203084
 C         -0.8324796766        0.2082190541       -0.0004665734
 C         -2.0422863037       -0.7327755923       -0.0003286980
 C         -3.2874575197        0.0070397915        0.0010023317
 C         -4.3111141119        0.6274366809        0.0006127247
 H          5.1413020873       -0.0512726112        0.0001013556
 H          4.2040297549        1.1528279878        0.8863397003
 H          4.2029213768        1.1586414302       -0.8770048022
 H          3.0510943556       -1.0570304295       -0.8822992147
 H          3.0495184800       -1.0594159464        0.8808965884
 H          1.6545002652        1.0032244976       -0.8813485350
 H          1.6542371226        1.0031846963        0.8813537174
 H          0.5211715268       -1.2136376625        0.8818940230
 H          0.5214999094       -1.2138254601       -0.8821797605
 H         -0.8774337634        0.8520996212        0.8809930290
 H         -0.8774060843        0.8519279148       -0.8820524908
 H         -2.0119384811       -1.3731794796        0.8854534902
 H         -2.0122721858       -1.3732785302       -0.8860999601
 H         -5.2096035442        1.1683074001        0.0028569170
          22
        -24.20618485
 C          3.9613846365       -0.3714549022       -0.2127333410
 C          2.5759679989       -0.5324115710        0.4020056316
 C          1.5456322426        0.3710348927       -0.2717907730
 C          0.1559832428        0.2129230712        0.3400976406
 C         -0.8723335145        1.1176800181       -0.3339698752
 C         -2.2728181932        0.9388591887        0.2640065530
 C         -2.7961828089       -0.3895517598        0.0175145753
 C         -3.2155607276       -1.4888922641       -0.2025877789
 H          4.6779663641       -1.0214024801        0.2833748452
 H          4.3040302422        0.6563554900       -0.1153082803
 H          3.9403699456       -0.6259980042       -1.2700953177
 H          2.2556293895       -1.5727802643        0.3098515985
 H          2.6217803725       -0.2944069378        1.4673174731
 H          1.5000353749        0.1323359122       -1.3371699271
 H          1.8654201103        1.4120784329       -0.1800800311
 H          0.2030484626        0.4489396129        1.4063513619
 H         -0.1675104328       -0.8266762082        0.2460372300
 H         -0.5706480849        2.1609205434       -0.2176485389
 H         -0.9062901630        0.8938925126       -1.4026822687
 H         -2.9573906260        1.6687230705       -0.1761369338
 H         -2.2373657661        1.1087073881        1.3435588396
 H         -3.5902690763       -2.4507199617       -0.3876702367
