 xtb: 6.7.1 (edcfbbe)
          04092507313D

 38 37  0     0  0            999 V2000
    3.0030   -4.0152    0.2515 C   0  0  0  0  0  0  0  0  0  0  0  0
    2.7031   -2.5730    0.6074 C   0  0  0  0  0  0  0  0  0  0  0  0
    2.2584   -1.9042   -0.5886 O   0  0  0  0  0  0  0  0  0  0  0  0
    2.0798   -0.6058   -0.5480 C   0  0  0  0  0  0  0  0  0  0  0  0
    2.2520    0.0894    0.4344 O   0  0  0  0  0  0  0  0  0  0  0  0
    1.6652   -0.0399   -1.8933 C   0  0  0  0  0  0  0  0  0  0  0  0
    0.4421    0.8709   -1.7520 C   0  0  0  0  0  0  0  0  0  0  0  0
    0.3736    1.5354   -2.6161 H   0  0  0  0  0  0  0  0  0  0  0  0
    0.5156    1.7070   -0.4887 C   0  0  0  0  0  0  0  0  0  0  0  0
   -0.2744    1.5658    0.4294 O   0  0  0  0  0  0  0  0  0  0  0  0
    1.4587    2.5978   -0.5438 O   0  0  0  0  0  0  0  0  0  0  0  0
    1.6882    3.4344    0.6114 C   0  0  0  0  0  0  0  0  0  0  0  0
    0.7527    4.6316    0.6128 C   0  0  0  0  0  0  0  0  0  0  0  0
   -1.1295   -0.0583   -1.7469 S   0  0  0  0  0  0  0  0  0  0  0  0
   -1.6857   -0.3982    0.2716 P   0  0  0  0  0  0  0  0  0  0  0  0
   -0.4980   -1.1502    1.6505 S   0  0  0  0  0  0  0  0  0  0  0  0
   -2.7547    0.6974    0.7045 O   0  0  0  0  0  0  0  0  0  0  0  0
   -2.6562    1.5253    1.8632 C   0  0  0  0  0  0  0  0  0  0  0  0
   -2.8181   -1.4858   -0.0992 O   0  0  0  0  0  0  0  0  0  0  0  0
   -2.4831   -2.8184   -0.4876 C   0  0  0  0  0  0  0  0  0  0  0  0
    2.1083   -4.4952   -0.1330 H   0  0  0  0  0  0  0  0  0  0  0  0
    3.7808   -4.0591   -0.5050 H   0  0  0  0  0  0  0  0  0  0  0  0
    3.3350   -4.5393    1.1412 H   0  0  0  0  0  0  0  0  0  0  0  0
    3.5865   -2.0488    0.9849 H   0  0  0  0  0  0  0  0  0  0  0  0
    1.9098   -2.4906    1.3582 H   0  0  0  0  0  0  0  0  0  0  0  0
    1.4547   -0.8510   -2.5883 H   0  0  0  0  0  0  0  0  0  0  0  0
    2.5030    0.5560   -2.2619 H   0  0  0  0  0  0  0  0  0  0  0  0
    1.5591    2.8219    1.5077 H   0  0  0  0  0  0  0  0  0  0  0  0
    2.7294    3.7398    0.5117 H   0  0  0  0  0  0  0  0  0  0  0  0
    0.8668    5.1968   -0.3079 H   0  0  0  0  0  0  0  0  0  0  0  0
   -0.2806    4.3044    0.7036 H   0  0  0  0  0  0  0  0  0  0  0  0
    0.9930    5.2691    1.4569 H   0  0  0  0  0  0  0  0  0  0  0  0
   -2.4508    2.5471    1.5483 H   0  0  0  0  0  0  0  0  0  0  0  0
   -1.8574    1.1747    2.5193 H   0  0  0  0  0  0  0  0  0  0  0  0
   -3.6164    1.4635    2.3716 H   0  0  0  0  0  0  0  0  0  0  0  0
   -2.1075   -2.8309   -1.5111 H   0  0  0  0  0  0  0  0  0  0  0  0
   -3.4070   -3.3864   -0.4132 H   0  0  0  0  0  0  0  0  0  0  0  0
   -1.7312   -3.2265    0.1918 H   0  0  0  0  0  0  0  0  0  0  0  0
  1  2  1  0  0  0  0
  2  3  1  0  0  0  0
  3  4  4  0  0  0  0
  4  5  2  0  0  0  0
  4  6  1  0  0  0  0
  6  7  1  0  0  0  0
  7  8  1  0  0  0  0
  7  9  1  0  0  0  0
  9 10  2  0  0  0  0
  9 11  4  0  0  0  0
 11 12  1  0  0  0  0
 12 13  1  0  0  0  0
  7 14  1  0  0  0  0
 14 15  1  0  0  0  0
 15 16  2  0  0  0  0
 15 17  1  0  0  0  0
 17 18  1  0  0  0  0
 15 19  1  0  0  0  0
 19 20  1  0  0  0  0
  1 21  1  0  0  0  0
  1 22  1  0  0  0  0
  1 23  1  0  0  0  0
  2 24  1  0  0  0  0
  2 25  1  0  0  0  0
  6 26  1  0  0  0  0
  6 27  1  0  0  0  0
 12 28  1  0  0  0  0
 12 29  1  0  0  0  0
 13 30  1  0  0  0  0
 13 31  1  0  0  0  0
 13 32  1  0  0  0  0
 18 33  1  0  0  0  0
 18 34  1  0  0  0  0
 18 35  1  0  0  0  0
 20 36  1  0  0  0  0
 20 37  1  0  0  0  0
 20 38  1  0  0  0  0
M  END
