 xtb: 6.7.1 (edcfbbe)
          04092505213D

 41 40  0     0  0            999 V2000
    5.4558   -0.5227   -0.8456 C   0  0  0  0  0  0  0  0  0  0  0  0
    4.4000   -1.2338   -0.0211 C   0  0  0  0  0  0  0  0  0  0  0  0
    3.5079   -0.2916    0.6044 O   0  0  0  0  0  0  0  0  0  0  0  0
    2.1399    0.1733   -0.0623 P   0  0  0  0  0  0  0  0  0  0  0  0
    2.2611    0.9332   -1.8699 S   0  0  0  0  0  0  0  0  0  0  0  0
    1.5847    1.1046    1.0901 O   0  0  0  0  0  0  0  0  0  0  0  0
    1.7718    2.5330    1.0758 C   0  0  0  0  0  0  0  0  0  0  0  0
    3.2312    2.9060    1.2195 C   0  0  0  0  0  0  0  0  0  0  0  0
    0.9568   -1.5615    0.1406 S   0  0  0  0  0  0  0  0  0  0  0  0
   -0.0606   -1.4727   -1.3797 C   0  0  0  0  0  0  0  0  0  0  0  0
   -1.8090   -1.7579   -1.0604 S   0  0  0  0  0  0  0  0  0  0  0  0
   -2.3553    0.1127   -0.1890 P   0  0  0  0  0  0  0  0  0  0  0  0
   -1.1392    1.5905   -0.6101 S   0  0  0  0  0  0  0  0  0  0  0  0
   -2.5880   -0.1655    1.3622 O   0  0  0  0  0  0  0  0  0  0  0  0
   -1.5180   -0.3191    2.3115 C   0  0  0  0  0  0  0  0  0  0  0  0
   -2.0703   -0.0064    3.6875 C   0  0  0  0  0  0  0  0  0  0  0  0
   -3.8135    0.4124   -0.6861 O   0  0  0  0  0  0  0  0  0  0  0  0
   -5.0231   -0.2290   -0.2049 C   0  0  0  0  0  0  0  0  0  0  0  0
   -5.0234   -1.7229   -0.4439 C   0  0  0  0  0  0  0  0  0  0  0  0
    6.0084    0.1756   -0.2233 H   0  0  0  0  0  0  0  0  0  0  0  0
    6.1410   -1.2560   -1.2583 H   0  0  0  0  0  0  0  0  0  0  0  0
    4.9903    0.0261   -1.6614 H   0  0  0  0  0  0  0  0  0  0  0  0
    4.8470   -1.7794    0.8120 H   0  0  0  0  0  0  0  0  0  0  0  0
    3.8198   -1.9253   -0.6393 H   0  0  0  0  0  0  0  0  0  0  0  0
    1.3502    2.9267    0.1447 H   0  0  0  0  0  0  0  0  0  0  0  0
    1.1740    2.8835    1.9183 H   0  0  0  0  0  0  0  0  0  0  0  0
    3.6481    2.4464    2.1117 H   0  0  0  0  0  0  0  0  0  0  0  0
    3.7857    2.5559    0.3493 H   0  0  0  0  0  0  0  0  0  0  0  0
    3.3224    3.9855    1.2864 H   0  0  0  0  0  0  0  0  0  0  0  0
    0.2539   -2.2701   -2.0480 H   0  0  0  0  0  0  0  0  0  0  0  0
    0.0876   -0.4909   -1.8372 H   0  0  0  0  0  0  0  0  0  0  0  0
   -1.1520   -1.3483    2.2524 H   0  0  0  0  0  0  0  0  0  0  0  0
   -0.7029    0.3623    2.0442 H   0  0  0  0  0  0  0  0  0  0  0  0
   -2.4357    1.0164    3.7202 H   0  0  0  0  0  0  0  0  0  0  0  0
   -2.8877   -0.6820    3.9217 H   0  0  0  0  0  0  0  0  0  0  0  0
   -1.2809   -0.1287    4.4217 H   0  0  0  0  0  0  0  0  0  0  0  0
   -5.1287    0.0001    0.8567 H   0  0  0  0  0  0  0  0  0  0  0  0
   -5.8075    0.2711   -0.7748 H   0  0  0  0  0  0  0  0  0  0  0  0
   -4.8445   -1.9406   -1.4937 H   0  0  0  0  0  0  0  0  0  0  0  0
   -4.2463   -2.2024    0.1482 H   0  0  0  0  0  0  0  0  0  0  0  0
   -5.9883   -2.1273   -0.1538 H   0  0  0  0  0  0  0  0  0  0  0  0
  1  2  1  0  0  0  0
  2  3  1  0  0  0  0
  3  4  2  0  0  0  0
  4  5  2  0  0  0  0
  4  6  2  0  0  0  0
  6  7  1  0  0  0  0
  7  8  1  0  0  0  0
  4  9  1  0  0  0  0
  9 10  1  0  0  0  0
 10 11  1  0  0  0  0
 11 12  1  0  0  0  0
 12 13  2  0  0  0  0
 12 14  2  0  0  0  0
 14 15  1  0  0  0  0
 15 16  1  0  0  0  0
 12 17  2  0  0  0  0
 17 18  1  0  0  0  0
 18 19  1  0  0  0  0
  1 20  1  0  0  0  0
  1 21  1  0  0  0  0
  1 22  1  0  0  0  0
  2 23  1  0  0  0  0
  2 24  1  0  0  0  0
  7 25  1  0  0  0  0
  7 26  1  0  0  0  0
  8 27  1  0  0  0  0
  8 28  1  0  0  0  0
  8 29  1  0  0  0  0
 10 30  1  0  0  0  0
 10 31  1  0  0  0  0
 15 32  1  0  0  0  0
 15 33  1  0  0  0  0
 16 34  1  0  0  0  0
 16 35  1  0  0  0  0
 16 36  1  0  0  0  0
 18 37  1  0  0  0  0
 18 38  1  0  0  0  0
 19 39  1  0  0  0  0
 19 40  1  0  0  0  0
 19 41  1  0  0  0  0
M  END
