11
 xtb: 6.7.1 (edcfbbe)
C           -2.12515530526106       -1.26628393850883       -0.14491851631888
C           -1.52536588347552        0.00004746602652        0.41524068776717
C           -2.12466182591688        1.26670279200609       -0.14471590755877
I            0.67854005421053       -0.00037429101355       -0.00832960293164
H           -2.04697722003165       -1.29701060539736       -1.23550929259206
H           -1.66109948188826       -2.16258774929743        0.27216121783516
H           -3.19111270211412       -1.27928737476325        0.11943350421819
H           -1.52110959536617       -0.00004680251146        1.50532599339509
H           -3.19074682277568        1.27981251063613        0.11911175122658
H           -2.04595152681161        1.29783779314731       -1.23525564657530
H           -1.66061741004447        2.16274866174652        0.27292754871013
