 xtb: 6.7.1 (edcfbbe)
          04092507313D

 38 37  0     0  0            999 V2000
    4.5615   -1.6989   -3.1382 C   0  0  0  0  0  0  0  0  0  0  0  0
    4.2910   -1.1320   -1.7585 C   0  0  0  0  0  0  0  0  0  0  0  0
    3.0152   -1.6286   -1.3101 O   0  0  0  0  0  0  0  0  0  0  0  0
    2.7172   -1.5112   -0.0360 C   0  0  0  0  0  0  0  0  0  0  0  0
    3.4627   -1.0705    0.8117 O   0  0  0  0  0  0  0  0  0  0  0  0
    1.3008   -1.9832    0.2509 C   0  0  0  0  0  0  0  0  0  0  0  0
    0.3233   -0.9320   -0.2941 C   0  0  0  0  0  0  0  0  0  0  0  0
    0.3137   -0.9482   -1.3865 H   0  0  0  0  0  0  0  0  0  0  0  0
    0.8209    0.4266    0.1624 C   0  0  0  0  0  0  0  0  0  0  0  0
    1.7055    1.0059   -0.4263 O   0  0  0  0  0  0  0  0  0  0  0  0
    0.2626    0.8232    1.2857 O   0  0  0  0  0  0  0  0  0  0  0  0
    0.7828    2.0093    1.9171 C   0  0  0  0  0  0  0  0  0  0  0  0
    1.8792    1.6340    2.8999 C   0  0  0  0  0  0  0  0  0  0  0  0
   -1.3484   -1.3024    0.3288 S   0  0  0  0  0  0  0  0  0  0  0  0
   -2.2699    0.5757   -0.0288 P   0  0  0  0  0  0  0  0  0  0  0  0
   -1.4419    1.6979   -1.4063 S   0  0  0  0  0  0  0  0  0  0  0  0
   -3.7801    0.1500   -0.3367 O   0  0  0  0  0  0  0  0  0  0  0  0
   -4.1298   -0.5372   -1.5444 C   0  0  0  0  0  0  0  0  0  0  0  0
   -2.4630    1.3234    1.3476 O   0  0  0  0  0  0  0  0  0  0  0  0
   -3.0944    0.6856    2.4787 C   0  0  0  0  0  0  0  0  0  0  0  0
    3.7759   -1.3953   -3.8233 H   0  0  0  0  0  0  0  0  0  0  0  0
    5.5140   -1.3242   -3.4974 H   0  0  0  0  0  0  0  0  0  0  0  0
    4.5944   -2.7835   -3.0970 H   0  0  0  0  0  0  0  0  0  0  0  0
    4.2317   -0.0388   -1.7705 H   0  0  0  0  0  0  0  0  0  0  0  0
    5.0530   -1.4320   -1.0323 H   0  0  0  0  0  0  0  0  0  0  0  0
    1.1766   -2.0824    1.3297 H   0  0  0  0  0  0  0  0  0  0  0  0
    1.1182   -2.9380   -0.2399 H   0  0  0  0  0  0  0  0  0  0  0  0
    1.1591    2.6757    1.1356 H   0  0  0  0  0  0  0  0  0  0  0  0
   -0.0765    2.4610    2.4136 H   0  0  0  0  0  0  0  0  0  0  0  0
    1.4845    0.9817    3.6736 H   0  0  0  0  0  0  0  0  0  0  0  0
    2.6840    1.1157    2.3802 H   0  0  0  0  0  0  0  0  0  0  0  0
    2.2749    2.5353    3.3555 H   0  0  0  0  0  0  0  0  0  0  0  0
   -3.7819   -1.5688   -1.4961 H   0  0  0  0  0  0  0  0  0  0  0  0
   -3.6879   -0.0323   -2.4048 H   0  0  0  0  0  0  0  0  0  0  0  0
   -5.2147   -0.4993   -1.5982 H   0  0  0  0  0  0  0  0  0  0  0  0
   -3.0254    1.4081    3.2875 H   0  0  0  0  0  0  0  0  0  0  0  0
   -2.5619   -0.2313    2.7310 H   0  0  0  0  0  0  0  0  0  0  0  0
   -4.1335    0.4640    2.2450 H   0  0  0  0  0  0  0  0  0  0  0  0
  1  2  1  0  0  0  0
  2  3  1  0  0  0  0
  3  4  4  0  0  0  0
  4  5  2  0  0  0  0
  4  6  1  0  0  0  0
  6  7  1  0  0  0  0
  7  8  1  0  0  0  0
  7  9  1  0  0  0  0
  9 10  2  0  0  0  0
  9 11  1  0  0  0  0
 11 12  1  0  0  0  0
 12 13  1  0  0  0  0
  7 14  1  0  0  0  0
 14 15  1  0  0  0  0
 15 16  2  0  0  0  0
 15 17  2  0  0  0  0
 17 18  1  0  0  0  0
 15 19  2  0  0  0  0
 19 20  1  0  0  0  0
  1 21  1  0  0  0  0
  1 22  1  0  0  0  0
  1 23  1  0  0  0  0
  2 24  1  0  0  0  0
  2 25  1  0  0  0  0
  6 26  1  0  0  0  0
  6 27  1  0  0  0  0
 12 28  1  0  0  0  0
 12 29  1  0  0  0  0
 13 30  1  0  0  0  0
 13 31  1  0  0  0  0
 13 32  1  0  0  0  0
 18 33  1  0  0  0  0
 18 34  1  0  0  0  0
 18 35  1  0  0  0  0
 20 36  1  0  0  0  0
 20 37  1  0  0  0  0
 20 38  1  0  0  0  0
M  END
