 xtb: 6.7.1 (edcfbbe)
          04092505203D

 41 40  0     0  0            999 V2000
    3.7286   -1.7752   -2.3579 C   0  0  0  0  0  0  0  0  0  0  0  0
    4.2013   -1.1136   -1.0786 C   0  0  0  0  0  0  0  0  0  0  0  0
    3.1287   -0.9141   -0.1469 O   0  0  0  0  0  0  0  0  0  0  0  0
    1.9778    0.1693   -0.3854 P   0  0  0  0  0  0  0  0  0  0  0  0
    2.6005    1.8213   -1.2300 S   0  0  0  0  0  0  0  0  0  0  0  0
    1.3710    0.2337    1.0770 O   0  0  0  0  0  0  0  0  0  0  0  0
    1.7589    1.2502    2.0215 C   0  0  0  0  0  0  0  0  0  0  0  0
    3.2133    1.1249    2.4196 C   0  0  0  0  0  0  0  0  0  0  0  0
    0.4600   -0.9159   -1.3835 S   0  0  0  0  0  0  0  0  0  0  0  0
   -0.0046   -2.0432   -0.0444 C   0  0  0  0  0  0  0  0  0  0  0  0
   -1.2097   -1.3529    1.1489 S   0  0  0  0  0  0  0  0  0  0  0  0
   -2.0310    0.3143    0.1069 P   0  0  0  0  0  0  0  0  0  0  0  0
   -0.9859    1.9692   -0.0768 S   0  0  0  0  0  0  0  0  0  0  0  0
   -3.3834    0.5264    0.9197 O   0  0  0  0  0  0  0  0  0  0  0  0
   -3.4721    1.3741    2.0776 C   0  0  0  0  0  0  0  0  0  0  0  0
   -2.7050    0.8099    3.2553 C   0  0  0  0  0  0  0  0  0  0  0  0
   -2.5535   -0.1969   -1.2900 O   0  0  0  0  0  0  0  0  0  0  0  0
   -3.7059   -1.0521   -1.5097 C   0  0  0  0  0  0  0  0  0  0  0  0
   -3.3324   -2.5203   -1.4674 C   0  0  0  0  0  0  0  0  0  0  0  0
    3.2163   -2.7082   -2.1388 H   0  0  0  0  0  0  0  0  0  0  0  0
    3.0420   -1.1122   -2.8846 H   0  0  0  0  0  0  0  0  0  0  0  0
    4.5835   -1.9737   -2.9961 H   0  0  0  0  0  0  0  0  0  0  0  0
    4.6537   -0.1408   -1.2968 H   0  0  0  0  0  0  0  0  0  0  0  0
    4.9095   -1.7417   -0.5365 H   0  0  0  0  0  0  0  0  0  0  0  0
    1.5500    2.2294    1.5783 H   0  0  0  0  0  0  0  0  0  0  0  0
    1.0904    1.0832    2.8681 H   0  0  0  0  0  0  0  0  0  0  0  0
    3.4162    0.1235    2.7900 H   0  0  0  0  0  0  0  0  0  0  0  0
    3.8490    1.3213    1.5568 H   0  0  0  0  0  0  0  0  0  0  0  0
    3.4354    1.8522    3.1940 H   0  0  0  0  0  0  0  0  0  0  0  0
    0.8813   -2.3194    0.5239 H   0  0  0  0  0  0  0  0  0  0  0  0
   -0.4545   -2.9101   -0.5225 H   0  0  0  0  0  0  0  0  0  0  0  0
   -3.0932    2.3655    1.8090 H   0  0  0  0  0  0  0  0  0  0  0  0
   -4.5428    1.4273    2.2796 H   0  0  0  0  0  0  0  0  0  0  0  0
   -3.0166   -0.2116    3.4576 H   0  0  0  0  0  0  0  0  0  0  0  0
   -1.6385    0.8141    3.0332 H   0  0  0  0  0  0  0  0  0  0  0  0
   -2.8851    1.4259    4.1304 H   0  0  0  0  0  0  0  0  0  0  0  0
   -4.4693   -0.8103   -0.7689 H   0  0  0  0  0  0  0  0  0  0  0  0
   -4.0471   -0.7594   -2.5041 H   0  0  0  0  0  0  0  0  0  0  0  0
   -3.0668   -2.8212   -0.4571 H   0  0  0  0  0  0  0  0  0  0  0  0
   -4.1860   -3.1060   -1.7945 H   0  0  0  0  0  0  0  0  0  0  0  0
   -2.4958   -2.7075   -2.1363 H   0  0  0  0  0  0  0  0  0  0  0  0
  1  2  1  0  0  0  0
  2  3  1  0  0  0  0
  3  4  2  0  0  0  0
  4  5  2  0  0  0  0
  4  6  2  0  0  0  0
  6  7  1  0  0  0  0
  7  8  1  0  0  0  0
  4  9  1  0  0  0  0
  9 10  1  0  0  0  0
 10 11  1  0  0  0  0
 11 12  1  0  0  0  0
 12 13  2  0  0  0  0
 12 14  2  0  0  0  0
 14 15  1  0  0  0  0
 15 16  1  0  0  0  0
 12 17  2  0  0  0  0
 17 18  1  0  0  0  0
 18 19  1  0  0  0  0
  1 20  1  0  0  0  0
  1 21  1  0  0  0  0
  1 22  1  0  0  0  0
  2 23  1  0  0  0  0
  2 24  1  0  0  0  0
  7 25  1  0  0  0  0
  7 26  1  0  0  0  0
  8 27  1  0  0  0  0
  8 28  1  0  0  0  0
  8 29  1  0  0  0  0
 10 30  1  0  0  0  0
 10 31  1  0  0  0  0
 15 32  1  0  0  0  0
 15 33  1  0  0  0  0
 16 34  1  0  0  0  0
 16 35  1  0  0  0  0
 16 36  1  0  0  0  0
 18 37  1  0  0  0  0
 18 38  1  0  0  0  0
 19 39  1  0  0  0  0
 19 40  1  0  0  0  0
 19 41  1  0  0  0  0
M  END
