  23
 
 C         -2.9933788947        0.3119119030       -0.0717662958
 C         -1.6508340784       -0.4018672866        0.0451223067
 C         -0.4949591291        0.5884643635       -0.0864828670
 C          0.9237016884       -0.0020171723        0.0126302232
 C          1.1760251323       -1.0168058799       -1.1050422241
 C          1.9213752518        1.1528884529       -0.1350092946
 C          1.1449939098       -0.6732447887        1.3703028376
 H         -3.8136462941       -0.3954883520        0.0233564097
 H         -3.0951850121        1.0628967343        0.7087899325
 H         -3.0782669850        0.8086306508       -1.0358758923
 H         -1.6013203125       -0.9062040524        1.0110616346
 H         -1.5836756298       -1.1602114641       -0.7361930465
 H         -0.6043290990        1.3482424249        0.6921964327
 H         -0.5873541018        1.0967433228       -1.0501360816
 H          2.2120336743       -1.3480040028       -1.0823099314
 H          0.5408819525       -1.8911478249       -0.9900599432
 H          0.9804374614       -0.5714672100       -2.0780740250
 H          2.9431014498        0.7850537194       -0.0750266913
 H          1.7758660896        1.8879465106        0.6535081332
 H          1.7928803151        1.6499156148       -1.0940144560
 H          2.1832754607       -0.9820637384        1.4696838456
 H          0.9138406277        0.0151867390        2.1801270169
 H          0.5200553884       -1.5559128940        1.4763138678
          23
        -23.16219388
 C         -2.9991537763        0.2541496937        0.0000169652
 C         -1.6379061902       -0.4336750549        0.0002598771
 C         -0.5064377064        0.5930684482        0.0004168634
 C          0.9248508821        0.0251044806       -0.0000045780
 C          1.8989254652        1.2094180845       -0.0044860277
 C          1.1814390790       -0.8175552378        1.2518954787
 C          1.1777858166       -0.8243447474       -1.2480289769
 H         -3.1100225328        0.8808620144       -0.8821572384
 H         -3.7996022092       -0.4819463359        0.0012168911
 H         -3.1093208656        0.8826826238        0.8810389261
 H         -1.5634715504       -1.0700980596        0.8830676265
 H         -1.5633870583       -1.0697268098       -0.8827748420
 H         -0.6214592553        1.2311262484        0.8808193893
 H         -0.6217639041        1.2315062085       -0.8796834654
 H          1.7489771090        1.8254066835       -0.8883829972
 H          1.7499951154        1.8312501280        0.8754795459
 H          2.9279511300        0.8571734121       -0.0039091202
 H          0.9549331063       -0.2470913409        2.1498634938
 H          2.2258209763       -1.1190072954        1.2920905980
 H          0.5717477377       -1.7171008109        1.2496707323
 H          0.9425383157       -0.2608644946       -2.1481662203
 H          2.2234510516       -1.1206572950       -1.2930746895
 H          0.5728544470       -1.7269902479       -1.2359280659
