41
 xtb: 6.7.1 (edcfbbe)
C            3.31913022518204       -2.53472020453359       -2.24259497782545
C            3.10350585917000       -2.26601796598978       -0.77565847525038
O            3.48522794122765       -0.86901770237088       -0.47565889477779
P            2.43158077555617        0.19921616746722        0.10197116278945
S            3.30737398165869        1.83608121916199        0.68174650994009
O            1.53982874611604       -0.57135263286550        1.19727018247514
C            1.92548938241635       -0.62580668675994        2.61455439653928
C            3.06699771174741       -1.58492203063413        2.84868703030424
S            1.06453088292716        0.36553681219429       -1.51010639775526
C            0.13855807295538        1.87898116041524       -1.03538879185554
S           -0.93191577860021        1.82004642461937        0.45551142270461
P           -2.30527391118476        0.31143196793911       -0.11483960123839
S           -2.91080398628030        0.34527158593741       -1.96577353660010
O           -3.42536039043165        0.46331553492315        1.03320732134973
C           -4.68071545600100        1.20259746516000        0.83524630991565
C           -4.48424292704491        2.69435989365313        0.93773020124303
O           -1.53734401055339       -1.00952719930344        0.37944250765922
C           -1.82725504321156       -2.33484348335461       -0.18538221290549
C           -3.13804336294913       -2.88314131574478        0.32217992258179
H            4.35558752301392       -2.33534365719420       -2.52873857716054
H            3.10321968985606       -3.58939308592484       -2.44175194705862
H            2.65510603903594       -1.92658794842962       -2.86391708729724
H            3.75534005936505       -2.88078495587495       -0.15033824967165
H            2.06620784388496       -2.43783694040258       -0.47374547632394
H            2.16592454188825        0.38962691380569        2.94465102540318
H            1.01258411402949       -0.95574236370207        3.11472662293661
H            2.82135595743839       -2.58406018695776        2.47759829525763
H            3.98831804903288       -1.24031473225859        2.36913768510642
H            3.25064487688534       -1.65335973569008        3.92596574203427
H           -0.47300692225596        2.11834264409697       -1.91016816760255
H            0.84507072846117        2.69415726669735       -0.85262512651808
H           -5.10198384934114        0.90882653263240       -0.13070971005087
H           -5.32366281341413        0.82652018342535        1.63352482363488
H           -5.46667174515019        3.17671845027287        0.90224997085036
H           -4.00340256850604        2.96314641138591        1.88291420547207
H           -3.88537574854644        3.08150691462020        0.10856587518182
H           -1.80889879394791       -2.25451066592480       -1.27663391255926
H           -0.97956111415013       -2.94115538409043        0.14107079028439
H           -3.25821847359258       -3.90676128545029       -0.04764608740964
H           -3.15512599122721       -2.90651935052573        1.41553324351154
H           -3.98624694118263       -2.29132972174709       -0.03552475561380
