  33
 
 C         -3.3933035353       -1.6253558203        0.4028547322
 C         -2.7055666893       -0.2728019533        0.5984606870
 H         -2.9487964679        0.1160653844        1.5917199646
 C         -1.2001884229       -0.4096157842        0.4755298862
 C         -0.6174831942       -0.7125599998       -0.7495241758
 C          0.7514294148       -0.8639982463       -0.8553960894
 C          1.5757350928       -0.7197618102        0.2555636775
 C          0.9880066544       -0.4196978544        1.4771256630
 C         -0.3823775017       -0.2637149226        1.5873676210
 C          3.0629964129       -0.8556030530        0.1171744371
 C          3.6946682684        0.3951086816       -0.5200442907
 C          3.5087652917        1.6152244551        0.3776459567
 C          5.1778568418        0.1526027846       -0.7887048887
 C         -3.1543528973        0.7214339511       -0.4564976162
 O         -3.5634609277        0.4072613813       -1.5496410418
 O         -3.0357786898        2.0110532979       -0.1409931637
 H         -3.2321395719       -1.9827901613       -0.6105416558
 H         -2.9888912503       -2.3505472529        1.1032159522
 H         -4.4640971629       -1.5295885226        0.5634056928
 H         -1.2424609224       -0.8234504779       -1.6241640916
 H          1.1875899256       -1.1015659328       -1.8146853615
 H          1.6080220694       -0.3065820794        2.3538996275
 H         -0.8163120477       -0.0373941331        2.5502880921
 H          3.5151436044       -1.0205070696        1.0966850444
 H          3.2883434148       -1.7182892223       -0.5136246394
 H          3.1905451308        0.5856177722       -1.4742113322
 H          3.9318747467        2.4992746903       -0.0932532212
 H          4.0083113799        1.4623738494        1.3317643720
 H          2.4528736195        1.7968991107        0.5632917724
 H          5.6282217184        1.0289620184       -1.2484414011
 H          5.7017985836       -0.0541289805        0.1418782010
 H          5.3162438094       -0.6942599747       -1.4568131508
 H         -2.7101500490        2.1749060271        0.7620709594
          33
        -45.18377592
 C         -2.5915414961       -1.0575227727        1.8650283930
 C         -2.4396764307        0.1220422139        0.9053036688
 H         -2.6865625033        1.0604594138        1.4080361035
 C         -1.0301683203        0.2182220910        0.3554259407
 C         -0.5063890911       -0.7985375486       -0.4331024307
 C          0.7846955939       -0.7153665850       -0.9200902350
 C          1.5892580260        0.3815238004       -0.6325568317
 C          1.0522452826        1.4041374741        0.1401277578
 C         -0.2399776742        1.3261321419        0.6271201645
 C          3.0010796208        0.4551106964       -1.1357902465
 C          4.0313753643       -0.1541881638       -0.1615440456
 C          4.0537351009        0.5916903946        1.1696881883
 C          3.7741052630       -1.6409048934        0.0677676587
 C         -3.3535244373       -0.0152323714       -0.2913201727
 O         -3.6881455463       -1.0626711486       -0.8006485119
 O         -3.7274062161        1.1624297627       -0.7682224527
 H         -2.4715060214       -1.9945900430        1.3279798521
 H         -1.8385499832       -0.9965257620        2.6454547631
 H         -3.5786303238       -1.0479200536        2.3204953616
 H         -1.1195896910       -1.6538709286       -0.6781850452
 H          1.1693484596       -1.5128285805       -1.5385705987
 H          1.6490360781        2.2767747688        0.3597818259
 H         -0.6365884641        2.1335528199        1.2248600996
 H          3.0732613826       -0.0765596222       -2.0866689838
 H          3.2689390183        1.4993675184       -1.3082168124
 H          5.0150745759       -0.0448950817       -0.6329545891
 H          4.8335387484        0.1889999104        1.8119319307
 H          3.0998775382        0.4860834193        1.6813424369
 H          4.2513018386        1.6498945552        1.0153389857
 H          2.8120358480       -1.7910744944        0.5524504916
 H          3.7762475596       -2.1827610663       -0.8752331447
 H          4.5483831040       -2.0618712042        0.7050279995
 H         -4.2782276776        1.0886555221       -1.5719382815
          33
        -45.18457255
 C         -2.7950177604        1.7181578488        1.2112116238
 C         -2.5915211360        0.8611508149       -0.0377452174
 H         -2.8625076299        1.4212741742       -0.9361273405
 C         -1.1551412377        0.3940800775       -0.1674872994
 C         -0.5923075079       -0.4391683270        0.7918276576
 C          0.7219622546       -0.8503682845        0.6791846307
 C          1.5093245595       -0.4432316633       -0.3921622753
 C          0.9386228145        0.3811829543       -1.3527722949
 C         -0.3781310337        0.7923621307       -1.2457095475
 C          2.9461890964       -0.8653462239       -0.4801837546
 C          3.8376853340       -0.0586387822        0.4809635980
 C          5.2555854492       -0.6246941829        0.4794954716
 C          3.8532272219        1.4180218792        0.0960720029
 C         -3.4428355762       -0.3878324201        0.0024430621
 O         -3.7455273157       -0.9970398863        1.0053467343
 O         -3.7986312127       -0.7850258470       -1.2097251593
 H         -2.0841459880        2.5393498930        1.2138684973
 H         -3.8046932261        2.1204145838        1.2315798248
 H         -2.6475547042        1.1179153899        2.1049741752
 H         -1.1931473312       -0.7774358615        1.6237524955
 H          1.1422441238       -1.5014075166        1.4320239854
 H          1.5294631841        0.7052832747       -2.1967834888
 H         -0.8029312278        1.4317849662       -2.0053330175
 H          3.0274499659       -1.9239992800       -0.2241889360
 H          3.3120565722       -0.7306633666       -1.4994877619
 H          3.4227421581       -0.1500876093        1.4909589471
 H          5.8876396386       -0.0664206574        1.1659894981
 H          5.6882421579       -0.5582405408       -0.5164082135
 H          5.2551309219       -1.6683439492        0.7854169040
 H          4.2602852359        1.5438732117       -0.9049839162
 H          2.8466810422        1.8293965279        0.1149230452
 H          4.4695744720        1.9841224930        0.7904834667
 H         -4.3082059683       -1.6188097770       -1.2025921198
