 xtb: 6.7.1 (edcfbbe)
          04092505203D

 41 40  0     0  0            999 V2000
    5.2663   -2.2683   -1.3179 C   0  0  0  0  0  0  0  0  0  0  0  0
    4.2963   -1.1067   -1.3957 C   0  0  0  0  0  0  0  0  0  0  0  0
    3.2175   -1.3675   -0.4750 O   0  0  0  0  0  0  0  0  0  0  0  0
    2.2575   -0.2089    0.0291 P   0  0  0  0  0  0  0  0  0  0  0  0
    3.1598    1.4187    0.6549 S   0  0  0  0  0  0  0  0  0  0  0  0
    1.3582   -0.9669    1.0860 O   0  0  0  0  0  0  0  0  0  0  0  0
    1.6796   -0.9494    2.4960 C   0  0  0  0  0  0  0  0  0  0  0  0
    2.9402   -1.7346    2.7880 C   0  0  0  0  0  0  0  0  0  0  0  0
    0.9126    0.0375   -1.5853 S   0  0  0  0  0  0  0  0  0  0  0  0
    0.2492    1.6367   -1.0463 C   0  0  0  0  0  0  0  0  0  0  0  0
   -0.7765    1.5024    0.4345 S   0  0  0  0  0  0  0  0  0  0  0  0
   -2.3322    0.3404   -0.4676 P   0  0  0  0  0  0  0  0  0  0  0  0
   -2.6905    0.7451   -2.3446 S   0  0  0  0  0  0  0  0  0  0  0  0
   -3.5417    0.5701    0.5347 O   0  0  0  0  0  0  0  0  0  0  0  0
   -4.2343    1.8357    0.5838 C   0  0  0  0  0  0  0  0  0  0  0  0
   -5.5225    1.6291    1.3541 C   0  0  0  0  0  0  0  0  0  0  0  0
   -1.9672   -1.1711   -0.2313 O   0  0  0  0  0  0  0  0  0  0  0  0
   -1.8021   -1.7506    1.0872 C   0  0  0  0  0  0  0  0  0  0  0  0
   -3.0611   -2.4795    1.5079 C   0  0  0  0  0  0  0  0  0  0  0  0
    6.0714   -2.1069   -2.0272 H   0  0  0  0  0  0  0  0  0  0  0  0
    5.6808   -2.3452   -0.3168 H   0  0  0  0  0  0  0  0  0  0  0  0
    4.7535   -3.1946   -1.5596 H   0  0  0  0  0  0  0  0  0  0  0  0
    3.8727   -1.0055   -2.3987 H   0  0  0  0  0  0  0  0  0  0  0  0
    4.7752   -0.1628   -1.1134 H   0  0  0  0  0  0  0  0  0  0  0  0
    1.7874    0.0928    2.8126 H   0  0  0  0  0  0  0  0  0  0  0  0
    0.8046   -1.3940    2.9715 H   0  0  0  0  0  0  0  0  0  0  0  0
    3.7941   -1.2458    2.3205 H   0  0  0  0  0  0  0  0  0  0  0  0
    3.1003   -1.7742    3.8609 H   0  0  0  0  0  0  0  0  0  0  0  0
    2.8547   -2.7440    2.3946 H   0  0  0  0  0  0  0  0  0  0  0  0
   -0.3533    2.0167   -1.8711 H   0  0  0  0  0  0  0  0  0  0  0  0
    1.0708    2.3106   -0.8025 H   0  0  0  0  0  0  0  0  0  0  0  0
   -3.5831    2.5620    1.0775 H   0  0  0  0  0  0  0  0  0  0  0  0
   -4.4265    2.1656   -0.4423 H   0  0  0  0  0  0  0  0  0  0  0  0
   -6.0569    2.5716    1.4105 H   0  0  0  0  0  0  0  0  0  0  0  0
   -6.1450    0.8947    0.8507 H   0  0  0  0  0  0  0  0  0  0  0  0
   -5.3039    1.2798    2.3590 H   0  0  0  0  0  0  0  0  0  0  0  0
   -0.9560   -2.4325    0.9811 H   0  0  0  0  0  0  0  0  0  0  0  0
   -1.5488   -0.9537    1.7923 H   0  0  0  0  0  0  0  0  0  0  0  0
   -3.8879   -1.7796    1.5942 H   0  0  0  0  0  0  0  0  0  0  0  0
   -3.3166   -3.2348    0.7700 H   0  0  0  0  0  0  0  0  0  0  0  0
   -2.8920   -2.9573    2.4678 H   0  0  0  0  0  0  0  0  0  0  0  0
  1  2  1  0  0  0  0
  2  3  1  0  0  0  0
  3  4  2  0  0  0  0
  4  5  2  0  0  0  0
  4  6  2  0  0  0  0
  6  7  1  0  0  0  0
  7  8  1  0  0  0  0
  4  9  1  0  0  0  0
  9 10  1  0  0  0  0
 10 11  1  0  0  0  0
 11 12  1  0  0  0  0
 12 13  2  0  0  0  0
 12 14  2  0  0  0  0
 14 15  1  0  0  0  0
 15 16  1  0  0  0  0
 12 17  2  0  0  0  0
 17 18  1  0  0  0  0
 18 19  1  0  0  0  0
  1 20  1  0  0  0  0
  1 21  1  0  0  0  0
  1 22  1  0  0  0  0
  2 23  1  0  0  0  0
  2 24  1  0  0  0  0
  7 25  1  0  0  0  0
  7 26  1  0  0  0  0
  8 27  1  0  0  0  0
  8 28  1  0  0  0  0
  8 29  1  0  0  0  0
 10 30  1  0  0  0  0
 10 31  1  0  0  0  0
 15 32  1  0  0  0  0
 15 33  1  0  0  0  0
 16 34  1  0  0  0  0
 16 35  1  0  0  0  0
 16 36  1  0  0  0  0
 18 37  1  0  0  0  0
 18 38  1  0  0  0  0
 19 39  1  0  0  0  0
 19 40  1  0  0  0  0
 19 41  1  0  0  0  0
M  END
