 xtb: 6.7.1 (edcfbbe)
          04092507313D

 38 37  0     0  0            999 V2000
    3.0921   -3.3562    1.1197 C   0  0  0  0  0  0  0  0  0  0  0  0
    2.9768   -1.8488    1.2536 C   0  0  0  0  0  0  0  0  0  0  0  0
    2.6238   -1.2985   -0.0307 O   0  0  0  0  0  0  0  0  0  0  0  0
    1.6564   -0.4280   -0.1223 C   0  0  0  0  0  0  0  0  0  0  0  0
    1.0498    0.0574    0.8211 O   0  0  0  0  0  0  0  0  0  0  0  0
    1.3852   -0.0135   -1.5511 C   0  0  0  0  0  0  0  0  0  0  0  0
    0.3053    1.0576   -1.5705 C   0  0  0  0  0  0  0  0  0  0  0  0
    0.3095    1.5864   -2.5278 H   0  0  0  0  0  0  0  0  0  0  0  0
    0.5027    2.0838   -0.4605 C   0  0  0  0  0  0  0  0  0  0  0  0
   -0.3958    2.5270    0.2164 O   0  0  0  0  0  0  0  0  0  0  0  0
    1.7589    2.4799   -0.4083 O   0  0  0  0  0  0  0  0  0  0  0  0
    2.1084    3.4836    0.5668 C   0  0  0  0  0  0  0  0  0  0  0  0
    1.7983    4.8806    0.0545 C   0  0  0  0  0  0  0  0  0  0  0  0
   -1.3986    0.4139   -1.4852 S   0  0  0  0  0  0  0  0  0  0  0  0
   -1.5557   -0.9383    0.1468 P   0  0  0  0  0  0  0  0  0  0  0  0
   -0.4737   -2.5696    0.1362 S   0  0  0  0  0  0  0  0  0  0  0  0
   -1.5850   -0.2090    1.5460 O   0  0  0  0  0  0  0  0  0  0  0  0
   -2.4915    0.8617    1.8739 C   0  0  0  0  0  0  0  0  0  0  0  0
   -3.1164   -1.2696   -0.0232 O   0  0  0  0  0  0  0  0  0  0  0  0
   -3.5973   -2.0760   -1.1035 C   0  0  0  0  0  0  0  0  0  0  0  0
    3.3962   -3.7783    2.0715 H   0  0  0  0  0  0  0  0  0  0  0  0
    2.1300   -3.7750    0.8329 H   0  0  0  0  0  0  0  0  0  0  0  0
    3.8259   -3.6051    0.3598 H   0  0  0  0  0  0  0  0  0  0  0  0
    3.9319   -1.3984    1.5355 H   0  0  0  0  0  0  0  0  0  0  0  0
    2.2076   -1.5658    1.9781 H   0  0  0  0  0  0  0  0  0  0  0  0
    1.0888   -0.8909   -2.1290 H   0  0  0  0  0  0  0  0  0  0  0  0
    2.3133    0.3767   -1.9719 H   0  0  0  0  0  0  0  0  0  0  0  0
    1.5608    3.2718    1.4897 H   0  0  0  0  0  0  0  0  0  0  0  0
    3.1783    3.3432    0.7220 H   0  0  0  0  0  0  0  0  0  0  0  0
    2.3072    5.0540   -0.8896 H   0  0  0  0  0  0  0  0  0  0  0  0
    0.7269    4.9971   -0.0910 H   0  0  0  0  0  0  0  0  0  0  0  0
    2.1360    5.6097    0.7835 H   0  0  0  0  0  0  0  0  0  0  0  0
   -2.1366    1.7852    1.4171 H   0  0  0  0  0  0  0  0  0  0  0  0
   -2.4571    0.9345    2.9578 H   0  0  0  0  0  0  0  0  0  0  0  0
   -3.4962    0.6225    1.5316 H   0  0  0  0  0  0  0  0  0  0  0  0
   -2.9550   -2.9488   -1.2323 H   0  0  0  0  0  0  0  0  0  0  0  0
   -3.6194   -1.4893   -2.0209 H   0  0  0  0  0  0  0  0  0  0  0  0
   -4.6002   -2.3820   -0.8164 H   0  0  0  0  0  0  0  0  0  0  0  0
  1  2  1  0  0  0  0
  2  3  1  0  0  0  0
  3  4  4  0  0  0  0
  4  5  2  0  0  0  0
  4  6  1  0  0  0  0
  6  7  1  0  0  0  0
  7  8  1  0  0  0  0
  7  9  1  0  0  0  0
  9 10  2  0  0  0  0
  9 11  1  0  0  0  0
 11 12  1  0  0  0  0
 12 13  1  0  0  0  0
  7 14  1  0  0  0  0
 14 15  1  0  0  0  0
 15 16  2  0  0  0  0
 15 17  2  0  0  0  0
 17 18  1  0  0  0  0
 15 19  1  0  0  0  0
 19 20  1  0  0  0  0
  1 21  1  0  0  0  0
  1 22  1  0  0  0  0
  1 23  1  0  0  0  0
  2 24  1  0  0  0  0
  2 25  1  0  0  0  0
  6 26  1  0  0  0  0
  6 27  1  0  0  0  0
 12 28  1  0  0  0  0
 12 29  1  0  0  0  0
 13 30  1  0  0  0  0
 13 31  1  0  0  0  0
 13 32  1  0  0  0  0
 18 33  1  0  0  0  0
 18 34  1  0  0  0  0
 18 35  1  0  0  0  0
 20 36  1  0  0  0  0
 20 37  1  0  0  0  0
 20 38  1  0  0  0  0
M  END
