 xtb: 6.7.1 (edcfbbe)
          04092509473D

 38 37  0     0  0            999 V2000
    5.7106   -1.6094   -0.6879 C   0  0  0  0  0  0  0  0  0  0  0  0
    4.6730   -2.3721   -1.4961 C   0  0  0  0  0  0  0  0  0  0  0  0
    3.4187   -2.4520   -0.7904 O   0  0  0  0  0  0  0  0  0  0  0  0
    2.5864   -1.4320   -0.8471 C   0  0  0  0  0  0  0  0  0  0  0  0
    2.7748   -0.4153   -1.4820 O   0  0  0  0  0  0  0  0  0  0  0  0
    1.3550   -1.6930   -0.0069 C   0  0  0  0  0  0  0  0  0  0  0  0
    0.3171   -0.6107   -0.2431 C   0  0  0  0  0  0  0  0  0  0  0  0
   -0.0892   -0.6380   -1.2599 H   0  0  0  0  0  0  0  0  0  0  0  0
    0.8146    0.7963    0.0236 C   0  0  0  0  0  0  0  0  0  0  0  0
    0.3783    1.7592   -0.5709 O   0  0  0  0  0  0  0  0  0  0  0  0
    1.6805    0.8440    1.0122 O   0  0  0  0  0  0  0  0  0  0  0  0
    2.1762    2.1332    1.4306 C   0  0  0  0  0  0  0  0  0  0  0  0
    1.1618    2.8703    2.2905 C   0  0  0  0  0  0  0  0  0  0  0  0
   -1.0782   -0.8367    0.9152 S   0  0  0  0  0  0  0  0  0  0  0  0
   -2.5254    0.3553   -0.0884 P   0  0  0  0  0  0  0  0  0  0  0  0
   -2.5047    0.2820   -2.0408 S   0  0  0  0  0  0  0  0  0  0  0  0
   -3.8760   -0.1452    0.6026 O   0  0  0  0  0  0  0  0  0  0  0  0
   -4.4370   -1.4337    0.3181 C   0  0  0  0  0  0  0  0  0  0  0  0
   -2.4253    1.8206    0.4962 O   0  0  0  0  0  0  0  0  0  0  0  0
   -2.5943    2.0861    1.9041 C   0  0  0  0  0  0  0  0  0  0  0  0
    5.8428   -2.0728    0.2858 H   0  0  0  0  0  0  0  0  0  0  0  0
    6.6559   -1.6179   -1.2204 H   0  0  0  0  0  0  0  0  0  0  0  0
    5.3926   -0.5781   -0.5520 H   0  0  0  0  0  0  0  0  0  0  0  0
    4.9658   -3.4125   -1.6377 H   0  0  0  0  0  0  0  0  0  0  0  0
    4.5014   -1.8886   -2.4619 H   0  0  0  0  0  0  0  0  0  0  0  0
    1.6575   -1.7047    1.0422 H   0  0  0  0  0  0  0  0  0  0  0  0
    0.9492   -2.6737   -0.2546 H   0  0  0  0  0  0  0  0  0  0  0  0
    3.0789    1.8962    1.9937 H   0  0  0  0  0  0  0  0  0  0  0  0
    2.4246    2.7139    0.5379 H   0  0  0  0  0  0  0  0  0  0  0  0
    0.8816    2.2631    3.1470 H   0  0  0  0  0  0  0  0  0  0  0  0
    1.5997    3.8002    2.6381 H   0  0  0  0  0  0  0  0  0  0  0  0
    0.2753    3.0983    1.7030 H   0  0  0  0  0  0  0  0  0  0  0  0
   -5.4279   -1.4235    0.7654 H   0  0  0  0  0  0  0  0  0  0  0  0
   -3.8220   -2.2141    0.7649 H   0  0  0  0  0  0  0  0  0  0  0  0
   -4.5055   -1.5823   -0.7601 H   0  0  0  0  0  0  0  0  0  0  0  0
   -1.9298    1.4472    2.4867 H   0  0  0  0  0  0  0  0  0  0  0  0
   -3.6285    1.9062    2.1896 H   0  0  0  0  0  0  0  0  0  0  0  0
   -2.3349    3.1342    2.0303 H   0  0  0  0  0  0  0  0  0  0  0  0
  1  2  1  0  0  0  0
  2  3  1  0  0  0  0
  3  4  1  0  0  0  0
  4  5  2  0  0  0  0
  4  6  1  0  0  0  0
  6  7  1  0  0  0  0
  7  8  1  0  0  0  0
  7  9  1  0  0  0  0
  9 10  2  0  0  0  0
  9 11  1  0  0  0  0
 11 12  1  0  0  0  0
 12 13  1  0  0  0  0
  7 14  1  0  0  0  0
 14 15  1  0  0  0  0
 15 16  2  0  0  0  0
 15 17  2  0  0  0  0
 17 18  1  0  0  0  0
 15 19  2  0  0  0  0
 19 20  1  0  0  0  0
  1 21  1  0  0  0  0
  1 22  1  0  0  0  0
  1 23  1  0  0  0  0
  2 24  1  0  0  0  0
  2 25  1  0  0  0  0
  6 26  1  0  0  0  0
  6 27  1  0  0  0  0
 12 28  1  0  0  0  0
 12 29  1  0  0  0  0
 13 30  1  0  0  0  0
 13 31  1  0  0  0  0
 13 32  1  0  0  0  0
 18 33  1  0  0  0  0
 18 34  1  0  0  0  0
 18 35  1  0  0  0  0
 20 36  1  0  0  0  0
 20 37  1  0  0  0  0
 20 38  1  0  0  0  0
M  END
