 xtb: 6.7.1 (edcfbbe)
          04092507313D

 38 37  0     0  0            999 V2000
    3.2429   -3.8104    0.4107 C   0  0  0  0  0  0  0  0  0  0  0  0
    2.8275   -2.3896    0.7343 C   0  0  0  0  0  0  0  0  0  0  0  0
    2.3734   -1.7712   -0.4851 O   0  0  0  0  0  0  0  0  0  0  0  0
    2.0969   -0.4896   -0.4678 C   0  0  0  0  0  0  0  0  0  0  0  0
    2.1893    0.2276    0.5096 O   0  0  0  0  0  0  0  0  0  0  0  0
    1.6754    0.0286   -1.8300 C   0  0  0  0  0  0  0  0  0  0  0  0
    0.3779    0.8361   -1.7274 C   0  0  0  0  0  0  0  0  0  0  0  0
    0.2713    1.4801   -2.6033 H   0  0  0  0  0  0  0  0  0  0  0  0
    0.3570    1.6882   -0.4745 C   0  0  0  0  0  0  0  0  0  0  0  0
   -0.4496    1.5048    0.4222 O   0  0  0  0  0  0  0  0  0  0  0  0
    1.2296    2.6476   -0.5088 O   0  0  0  0  0  0  0  0  0  0  0  0
    1.3779    3.4709    0.6691 C   0  0  0  0  0  0  0  0  0  0  0  0
    2.4015    4.5435    0.3586 C   0  0  0  0  0  0  0  0  0  0  0  0
   -1.1039   -0.2240   -1.7386 S   0  0  0  0  0  0  0  0  0  0  0  0
   -1.6710   -0.5930    0.2860 P   0  0  0  0  0  0  0  0  0  0  0  0
   -0.4871   -1.1414    1.7470 S   0  0  0  0  0  0  0  0  0  0  0  0
   -2.8847    0.3968    0.6398 O   0  0  0  0  0  0  0  0  0  0  0  0
   -2.8887    1.4082    1.6442 C   0  0  0  0  0  0  0  0  0  0  0  0
   -2.5247   -1.9127   -0.0336 O   0  0  0  0  0  0  0  0  0  0  0  0
   -3.6315   -1.9720   -0.9479 C   0  0  0  0  0  0  0  0  0  0  0  0
    3.5879   -4.2951    1.3177 H   0  0  0  0  0  0  0  0  0  0  0  0
    2.3958   -4.3603    0.0120 H   0  0  0  0  0  0  0  0  0  0  0  0
    4.0419   -3.8079   -0.3247 H   0  0  0  0  0  0  0  0  0  0  0  0
    3.6579   -1.7964    1.1298 H   0  0  0  0  0  0  0  0  0  0  0  0
    2.0067   -2.3555    1.4588 H   0  0  0  0  0  0  0  0  0  0  0  0
    1.5505   -0.8040   -2.5205 H   0  0  0  0  0  0  0  0  0  0  0  0
    2.4702    0.6885   -2.1843 H   0  0  0  0  0  0  0  0  0  0  0  0
    0.4008    3.8943    0.9201 H   0  0  0  0  0  0  0  0  0  0  0  0
    1.6980    2.8169    1.4861 H   0  0  0  0  0  0  0  0  0  0  0  0
    2.5267    5.1775    1.2298 H   0  0  0  0  0  0  0  0  0  0  0  0
    3.3540    4.0859    0.1103 H   0  0  0  0  0  0  0  0  0  0  0  0
    2.0685    5.1468   -0.4804 H   0  0  0  0  0  0  0  0  0  0  0  0
   -3.8698    1.3631    2.1131 H   0  0  0  0  0  0  0  0  0  0  0  0
   -2.7260    2.3785    1.1783 H   0  0  0  0  0  0  0  0  0  0  0  0
   -2.1064    1.2168    2.3796 H   0  0  0  0  0  0  0  0  0  0  0  0
   -4.0977   -2.9369   -0.7639 H   0  0  0  0  0  0  0  0  0  0  0  0
   -3.2691   -1.9106   -1.9737 H   0  0  0  0  0  0  0  0  0  0  0  0
   -4.3307   -1.1625   -0.7461 H   0  0  0  0  0  0  0  0  0  0  0  0
  1  2  1  0  0  0  0
  2  3  1  0  0  0  0
  3  4  4  0  0  0  0
  4  5  2  0  0  0  0
  4  6  1  0  0  0  0
  6  7  1  0  0  0  0
  7  8  1  0  0  0  0
  7  9  1  0  0  0  0
  9 10  2  0  0  0  0
  9 11  4  0  0  0  0
 11 12  1  0  0  0  0
 12 13  1  0  0  0  0
  7 14  1  0  0  0  0
 14 15  1  0  0  0  0
 15 16  2  0  0  0  0
 15 17  1  0  0  0  0
 17 18  1  0  0  0  0
 15 19  1  0  0  0  0
 19 20  1  0  0  0  0
  1 21  1  0  0  0  0
  1 22  1  0  0  0  0
  1 23  1  0  0  0  0
  2 24  1  0  0  0  0
  2 25  1  0  0  0  0
  6 26  1  0  0  0  0
  6 27  1  0  0  0  0
 12 28  1  0  0  0  0
 12 29  1  0  0  0  0
 13 30  1  0  0  0  0
 13 31  1  0  0  0  0
 13 32  1  0  0  0  0
 18 33  1  0  0  0  0
 18 34  1  0  0  0  0
 18 35  1  0  0  0  0
 20 36  1  0  0  0  0
 20 37  1  0  0  0  0
 20 38  1  0  0  0  0
M  END
