19
CONF2
C 2.1853644519 -1.1810455471 0.1215900475
C 1.4156737223 0.1114049825 0.0544082282
O 1.9977235099 1.2184849047 -0.0081191944
N 0.0770440868 0.0255183628 0.0563535933
C -0.7131283785 -1.2230463971 0.0582390634
C -2.1071964240 -0.7449783538 -0.3459722611
C -2.1792173628 0.6601225550 0.2591565962
C -0.7838092552 1.2222380151 -0.0052042568
H 1.7887651895 -1.8525530931 0.8885350535
H 3.2325871984 -0.9617566359 0.3316559942
H 2.1204818457 -1.7026071388 -0.8401388309
H -0.2941897650 -1.9515818108 -0.6405551256
H -0.7225005982 -1.6679962930 1.0616855111
H -2.1779313123 -0.6870302353 -1.4377340362
H -2.8898930313 -1.4142581281 0.0177095424
H -2.9615751125 1.2804782631 -0.1833604816
H -2.3567375318 0.5945783565 1.3382513166
H -0.7151228955 1.6846126306 -0.9983253435
H -0.4654435896 1.9601295828 0.7362781693
19
CONF1
C 2.1710346715 -1.2009854940 -0.0594007555
C 1.4079441886 0.0925998997 0.0439823589
O 1.9934208282 1.1919247536 0.1774442730
N 0.0698216873 0.0160599183 -0.0065152564
C -0.7250692645 -1.2250847200 -0.1109547505
C -2.1342842638 -0.7577776787 0.2499163488
C -2.1711833309 0.6737832270 -0.2924756670
C -0.7876821786 1.2149493578 0.0642852489
H 1.8417721182 -1.7931824395 -0.9186760193
H 2.0106977050 -1.8077557616 0.8385354427
H 3.2347721120 -0.9816624534 -0.1526866780
H -0.6879627349 -1.6174606839 -1.1356200695
H -0.3438520061 -1.9918664595 0.5684119390
H -2.9022012516 -1.4045165084 -0.1802331726
H -2.2553180150 -0.7496655717 1.3388676549
H -2.2962063013 0.6584056703 -1.3807335751
H -2.9715448162 1.2783636074 0.1393951108
H -0.4296557875 1.9813322341 -0.6286310369
H -0.7662996061 1.6343135765 1.0783241316
19
CONF3
C 2.1579890787 -1.2164688172 0.1794028719
C 1.4081222087 0.0822962215 0.0420593890
O 2.0058351978 1.1764562372 -0.0739883966
N 0.0680454382 0.0161112720 0.0436988677
C -0.7401417373 -1.2185675222 0.0948047006
C -2.1153586366 -0.7450979269 -0.3741421776
C -2.1839723260 0.6897362525 0.1572343690
C -0.7731411681 1.2199727495 -0.0940384863
H 3.2155421920 -1.0029314801 0.3356501476
H 2.0479048259 -1.8128042461 -0.7331280495
H 1.7768665407 -1.8152931880 1.0119496396
H -0.3143198716 -1.9924638047 -0.5488653522
H -0.7840355214 -1.6051937096 1.1214283091
H -2.1532823043 -0.7422608865 -1.4690750574
H -2.9174986179 -1.3848745319 0.0000503518
H -2.9440642501 1.2978199423 -0.3378492490
H -2.3932607009 0.6803573807 1.2325008147
H -0.6709348266 1.6363081393 -1.1044550850
H -0.4646309239 1.9865674242 0.6223234470
