 xtb: 6.7.1 (edcfbbe)
          04092505213D

 41 40  0     0  0            999 V2000
    4.4591    1.0392   -1.6478 C   0  0  0  0  0  0  0  0  0  0  0  0
    3.2143    0.3428   -2.1540 C   0  0  0  0  0  0  0  0  0  0  0  0
    2.7155   -0.6096   -1.1895 O   0  0  0  0  0  0  0  0  0  0  0  0
    2.0411   -0.1620    0.1638 P   0  0  0  0  0  0  0  0  0  0  0  0
    1.1860    1.6111    0.1684 S   0  0  0  0  0  0  0  0  0  0  0  0
    3.2342   -0.2559    1.2068 O   0  0  0  0  0  0  0  0  0  0  0  0
    3.0948    0.1705    2.5764 C   0  0  0  0  0  0  0  0  0  0  0  0
    4.4847    0.3164    3.1610 C   0  0  0  0  0  0  0  0  0  0  0  0
    0.9551   -1.9174    0.6265 S   0  0  0  0  0  0  0  0  0  0  0  0
    0.0424   -2.1695   -0.9361 C   0  0  0  0  0  0  0  0  0  0  0  0
   -0.5541   -0.6520   -1.7227 S   0  0  0  0  0  0  0  0  0  0  0  0
   -2.0657   -0.0951   -0.3451 P   0  0  0  0  0  0  0  0  0  0  0  0
   -1.7385    0.0104    1.5886 S   0  0  0  0  0  0  0  0  0  0  0  0
   -3.1133   -1.2058   -0.7651 O   0  0  0  0  0  0  0  0  0  0  0  0
   -4.2388   -1.5605    0.0640 C   0  0  0  0  0  0  0  0  0  0  0  0
   -5.2867   -0.4680    0.0794 C   0  0  0  0  0  0  0  0  0  0  0  0
   -2.6375    1.2144   -1.0321 O   0  0  0  0  0  0  0  0  0  0  0  0
   -2.2799    2.5645   -0.6732 C   0  0  0  0  0  0  0  0  0  0  0  0
   -3.3067    3.1508    0.2760 C   0  0  0  0  0  0  0  0  0  0  0  0
    4.2111    1.6447   -0.7766 H   0  0  0  0  0  0  0  0  0  0  0  0
    5.2101    0.3068   -1.3642 H   0  0  0  0  0  0  0  0  0  0  0  0
    4.8544    1.6845   -2.4259 H   0  0  0  0  0  0  0  0  0  0  0  0
    3.4144   -0.2629   -3.0383 H   0  0  0  0  0  0  0  0  0  0  0  0
    2.4213    1.0663   -2.3689 H   0  0  0  0  0  0  0  0  0  0  0  0
    2.5465    1.1190    2.5935 H   0  0  0  0  0  0  0  0  0  0  0  0
    2.5107   -0.5831    3.1127 H   0  0  0  0  0  0  0  0  0  0  0  0
    4.4023    0.6083    4.2027 H   0  0  0  0  0  0  0  0  0  0  0  0
    5.0144   -0.6290    3.0909 H   0  0  0  0  0  0  0  0  0  0  0  0
    5.0415    1.0747    2.6180 H   0  0  0  0  0  0  0  0  0  0  0  0
   -0.7966   -2.8197   -0.6966 H   0  0  0  0  0  0  0  0  0  0  0  0
    0.7097   -2.6367   -1.6566 H   0  0  0  0  0  0  0  0  0  0  0  0
   -4.6166   -2.4792   -0.3866 H   0  0  0  0  0  0  0  0  0  0  0  0
   -3.8740   -1.7602    1.0768 H   0  0  0  0  0  0  0  0  0  0  0  0
   -6.1618   -0.8149    0.6199 H   0  0  0  0  0  0  0  0  0  0  0  0
   -4.8894    0.4154    0.5765 H   0  0  0  0  0  0  0  0  0  0  0  0
   -5.5675   -0.2039   -0.9368 H   0  0  0  0  0  0  0  0  0  0  0  0
   -1.2830    2.5777   -0.2247 H   0  0  0  0  0  0  0  0  0  0  0  0
   -2.2561    3.1045   -1.6213 H   0  0  0  0  0  0  0  0  0  0  0  0
   -3.2974    2.6063    1.2182 H   0  0  0  0  0  0  0  0  0  0  0  0
   -3.0571    4.1890    0.4692 H   0  0  0  0  0  0  0  0  0  0  0  0
   -4.2992    3.0929   -0.1623 H   0  0  0  0  0  0  0  0  0  0  0  0
  1  2  1  0  0  0  0
  2  3  1  0  0  0  0
  3  4  2  0  0  0  0
  4  5  2  0  0  0  0
  4  6  2  0  0  0  0
  6  7  1  0  0  0  0
  7  8  1  0  0  0  0
  4  9  1  0  0  0  0
  9 10  1  0  0  0  0
 10 11  1  0  0  0  0
 11 12  1  0  0  0  0
 12 13  2  0  0  0  0
 12 14  2  0  0  0  0
 14 15  1  0  0  0  0
 15 16  1  0  0  0  0
 12 17  2  0  0  0  0
 17 18  1  0  0  0  0
 18 19  1  0  0  0  0
  1 20  1  0  0  0  0
  1 21  1  0  0  0  0
  1 22  1  0  0  0  0
  2 23  1  0  0  0  0
  2 24  1  0  0  0  0
  7 25  1  0  0  0  0
  7 26  1  0  0  0  0
  8 27  1  0  0  0  0
  8 28  1  0  0  0  0
  8 29  1  0  0  0  0
 10 30  1  0  0  0  0
 10 31  1  0  0  0  0
 15 32  1  0  0  0  0
 15 33  1  0  0  0  0
 16 34  1  0  0  0  0
 16 35  1  0  0  0  0
 16 36  1  0  0  0  0
 18 37  1  0  0  0  0
 18 38  1  0  0  0  0
 19 39  1  0  0  0  0
 19 40  1  0  0  0  0
 19 41  1  0  0  0  0
M  END
