 xtb: 6.7.1 (edcfbbe)
          04092509483D

 38 37  0     0  0            999 V2000
    4.9317   -3.4009   -1.5558 C   0  0  0  0  0  0  0  0  0  0  0  0
    4.0099   -2.7009   -0.5755 C   0  0  0  0  0  0  0  0  0  0  0  0
    3.1684   -1.7981   -1.3214 O   0  0  0  0  0  0  0  0  0  0  0  0
    2.3352   -1.0230   -0.6630 C   0  0  0  0  0  0  0  0  0  0  0  0
    2.2089   -1.0167    0.5446 O   0  0  0  0  0  0  0  0  0  0  0  0
    1.5693   -0.1109   -1.5993 C   0  0  0  0  0  0  0  0  0  0  0  0
    0.3360    0.4589   -0.9133 C   0  0  0  0  0  0  0  0  0  0  0  0
   -0.1369    1.2235   -1.5384 H   0  0  0  0  0  0  0  0  0  0  0  0
    0.6659    1.1141    0.4192 C   0  0  0  0  0  0  0  0  0  0  0  0
    0.0087    0.9451    1.4240 O   0  0  0  0  0  0  0  0  0  0  0  0
    1.6713    1.9451    0.2809 O   0  0  0  0  0  0  0  0  0  0  0  0
    2.1320    2.7153    1.4110 C   0  0  0  0  0  0  0  0  0  0  0  0
    3.2138    1.9626    2.1673 C   0  0  0  0  0  0  0  0  0  0  0  0
   -0.8916   -0.8679   -0.6510 S   0  0  0  0  0  0  0  0  0  0  0  0
   -2.4826    0.2621    0.1668 P   0  0  0  0  0  0  0  0  0  0  0  0
   -2.5570    2.1575   -0.3031 S   0  0  0  0  0  0  0  0  0  0  0  0
   -3.7515   -0.5837   -0.3441 O   0  0  0  0  0  0  0  0  0  0  0  0
   -4.2111   -0.5565   -1.7004 C   0  0  0  0  0  0  0  0  0  0  0  0
   -2.6127   -0.0203    1.7157 O   0  0  0  0  0  0  0  0  0  0  0  0
   -2.3705   -1.3237    2.2757 C   0  0  0  0  0  0  0  0  0  0  0  0
    5.5391   -2.6723   -2.0843 H   0  0  0  0  0  0  0  0  0  0  0  0
    5.5807   -4.0809   -1.0140 H   0  0  0  0  0  0  0  0  0  0  0  0
    4.3497   -3.9628   -2.2799 H   0  0  0  0  0  0  0  0  0  0  0  0
    4.5689   -2.1208    0.1652 H   0  0  0  0  0  0  0  0  0  0  0  0
    3.3683   -3.4104   -0.0445 H   0  0  0  0  0  0  0  0  0  0  0  0
    1.2911   -0.6655   -2.4945 H   0  0  0  0  0  0  0  0  0  0  0  0
    2.2338    0.7080   -1.8826 H   0  0  0  0  0  0  0  0  0  0  0  0
    2.5236    3.6318    0.9666 H   0  0  0  0  0  0  0  0  0  0  0  0
    1.2794    2.9417    2.0569 H   0  0  0  0  0  0  0  0  0  0  0  0
    4.0412    1.7305    1.5022 H   0  0  0  0  0  0  0  0  0  0  0  0
    3.5738    2.5755    2.9870 H   0  0  0  0  0  0  0  0  0  0  0  0
    2.8129    1.0318    2.5628 H   0  0  0  0  0  0  0  0  0  0  0  0
   -4.3581    0.4747   -2.0246 H   0  0  0  0  0  0  0  0  0  0  0  0
   -5.1586   -1.0909   -1.6964 H   0  0  0  0  0  0  0  0  0  0  0  0
   -3.4935   -1.0548   -2.3516 H   0  0  0  0  0  0  0  0  0  0  0  0
   -1.3009   -1.5335    2.2442 H   0  0  0  0  0  0  0  0  0  0  0  0
   -2.9243   -2.0825    1.7247 H   0  0  0  0  0  0  0  0  0  0  0  0
   -2.7151   -1.2613    3.3043 H   0  0  0  0  0  0  0  0  0  0  0  0
  1  2  1  0  0  0  0
  2  3  1  0  0  0  0
  3  4  4  0  0  0  0
  4  5  2  0  0  0  0
  4  6  1  0  0  0  0
  6  7  1  0  0  0  0
  7  8  1  0  0  0  0
  7  9  1  0  0  0  0
  9 10  2  0  0  0  0
  9 11  4  0  0  0  0
 11 12  1  0  0  0  0
 12 13  1  0  0  0  0
  7 14  1  0  0  0  0
 14 15  1  0  0  0  0
 15 16  2  0  0  0  0
 15 17  1  0  0  0  0
 17 18  1  0  0  0  0
 15 19  2  0  0  0  0
 19 20  1  0  0  0  0
  1 21  1  0  0  0  0
  1 22  1  0  0  0  0
  1 23  1  0  0  0  0
  2 24  1  0  0  0  0
  2 25  1  0  0  0  0
  6 26  1  0  0  0  0
  6 27  1  0  0  0  0
 12 28  1  0  0  0  0
 12 29  1  0  0  0  0
 13 30  1  0  0  0  0
 13 31  1  0  0  0  0
 13 32  1  0  0  0  0
 18 33  1  0  0  0  0
 18 34  1  0  0  0  0
 18 35  1  0  0  0  0
 20 36  1  0  0  0  0
 20 37  1  0  0  0  0
 20 38  1  0  0  0  0
M  END
