38
 xtb: 6.7.1 (edcfbbe)
C            5.22701408571782       -2.14409669983715       -1.66920908130937
C            4.64752463714375       -0.96694159086683       -0.92057663009322
O            3.18699131141660       -0.94085209221485       -1.04185495318216
C            2.48903966731122       -1.70737971097041       -0.19095625007518
O            2.99185420146181       -2.42024103002297        0.65969147048024
C            1.00434964739749       -1.64237833033555       -0.45551277276385
C            0.49449855536176       -0.25406977143831       -0.82797798733855
H            1.00419540167145        0.10478298266738       -1.73129856487360
C            0.79999799543949        0.77235246577955        0.25353140993243
O            1.59750794762101        0.55607813732495        1.14670240413516
O            0.15591704438117        1.91918303130573        0.05971836655778
C            0.37837992215654        2.98997881360326        1.03883805464957
C            1.62368376682331        3.77267284281482        0.70072125151951
S           -1.28133529204533       -0.30012847532884       -1.37408813150446
P           -2.40842310990655       -0.09131454318033        0.41397559990211
S           -1.65210119705504       -0.85499228622979        2.02933519265706
O           -2.76697669156975        1.45682805183984        0.63024038035571
C           -3.21463731745169        2.30803280231813       -0.46589904382377
O           -3.82399572517074       -0.65699314535375       -0.11268927509682
C           -4.02841101264560       -2.09194481722233       -0.25758237681032
H            4.90095940774292       -3.09330040781898       -1.23588775778383
H            4.93693966015580       -2.11402830293751       -2.72335145824154
H            6.31915161043748       -2.09741479095502       -1.61293453776626
H            4.96168183905428       -0.01812150016931       -1.35903595717991
H            4.90931993841676       -0.97952670334056        0.14020237627372
H            0.48716848253096       -2.02445930330196        0.42589425875579
H            0.80681695219098       -2.32598920103473       -1.28918545356275
H           -0.52124177657467        3.60248966988502        0.95457336408233
H            0.42122257335801        2.54187654573432        2.03448326984199
H            1.55532420897705        4.19222792225100       -0.30672910973325
H            1.72466242424115        4.59969599072090        1.41052517328470
H            2.51856256416379        3.14908125382020        0.76952875452731
H           -3.46810290433678        3.26208114125626       -0.00395458597030
H           -4.09573941223637        1.87944159417197       -0.94929611423692
H           -2.40531385134516        2.44202129756540       -1.18748094288245
H           -5.02989583241973       -2.20360868559966       -0.67264836385505
H           -3.96669567555444       -2.57587624404431        0.72023447460026
H           -3.28939701889464       -2.51766944395918       -0.94203586665698
