41
 xtb: 6.7.1 (edcfbbe)
C            2.46068049708152       -1.18952413561963        3.02526593696710
C            1.37201611148268       -1.10036111894235        1.98590917975454
O            1.58981590385841        0.07173722650775        1.13311908273804
P            2.29319177933642        0.03112474340474       -0.31243897411025
S            2.96923375555087       -1.70747308850538       -0.87868065415404
O            3.30048813636158        1.28316444691393       -0.24769726258130
C            4.21373419812933        1.49387309690362        0.89082695849082
C            5.48249354866281        0.69108232282249        0.74720990258890
S            0.93816813034953        0.97040205083216       -1.65090970022134
C           -0.02640055583231       -0.47715212450899       -2.22335045225779
S           -0.97795839441142       -1.42331274047502       -0.96668765057729
P           -2.35943252015564        0.03508790511257       -0.29883335716138
S           -3.08893706470262        1.23795119398069       -1.64556278596770
O           -1.52437075096996        0.69778857669632        0.90171256161784
C           -2.01876598209465        1.89077099084953        1.60573111525993
C           -0.90688017742847        2.35407686489256        2.51090192123538
O           -3.41207061467728       -0.86817247520663        0.52162244759690
C           -4.68498921110715       -1.33224740901992       -0.04954332737759
C           -4.49901298083259       -2.52147941581557       -0.95824297703722
H            2.25715084179885       -2.04419103527938        3.67906279711923
H            3.43857516954028       -1.33881644478321        2.55653940563508
H            2.49342779931766       -0.28555665606347        3.64026593236838
H            0.38943851198049       -0.93609930819246        2.43475557192881
H            1.33188465944722       -1.99477727080524        1.35892719573805
H            4.41216325736256        2.56707961616887        0.86137859140882
H            3.67986386926412        1.25888155954750        1.81572453505293
H            6.16300033855440        0.97263493455723        1.55786083107444
H            5.29122975519320       -0.38267063277815        0.81685570991294
H            5.97528083602557        0.90541965237061       -0.20548382415093
H            0.64537127315895       -1.21128795837041       -2.67817393530712
H           -0.71020148852842       -0.08868430350016       -2.98361526616736
H           -2.27835221574398        2.64907120202866        0.86079282157724
H           -2.91581040768083        1.60873297771176        2.16620362408116
H           -0.63370677840377        1.57512340050157        3.22856143264188
H           -0.02251291743573        2.63217862210710        1.93028191549857
H           -1.24581846335610        3.23330551552538        3.06750111524570
H           -5.27888752055632       -1.58806462373074        0.83017323521008
H           -5.15580466725632       -0.49088794085595       -0.56642431987566
H           -3.97158544703309       -3.33029800536764       -0.44418340340906
H           -5.48702250652078       -2.88876791384431       -1.25486615775050
H           -3.94896526129214       -2.25583117065095       -1.86540668039357
