 xtb: 6.7.1 (edcfbbe)
          04092505213D

 41 40  0     0  0            999 V2000
    2.0792    1.7313   -2.4475 C   0  0  0  0  0  0  0  0  0  0  0  0
    2.3812    0.4235   -1.7477 C   0  0  0  0  0  0  0  0  0  0  0  0
    2.3916    0.6819   -0.3219 O   0  0  0  0  0  0  0  0  0  0  0  0
    2.2898   -0.4376    0.7837 P   0  0  0  0  0  0  0  0  0  0  0  0
    2.5405    0.3766    2.5435 S   0  0  0  0  0  0  0  0  0  0  0  0
    3.3646   -1.4870    0.2652 O   0  0  0  0  0  0  0  0  0  0  0  0
    3.4485   -2.8660    0.6753 C   0  0  0  0  0  0  0  0  0  0  0  0
    3.5077   -3.0295    2.1793 C   0  0  0  0  0  0  0  0  0  0  0  0
    0.4475   -1.4692    0.5100 S   0  0  0  0  0  0  0  0  0  0  0  0
   -0.5556   -0.3416    1.5077 C   0  0  0  0  0  0  0  0  0  0  0  0
   -0.7852    1.2896    0.7532 S   0  0  0  0  0  0  0  0  0  0  0  0
   -1.9517    0.7227   -0.9352 P   0  0  0  0  0  0  0  0  0  0  0  0
   -1.1445   -0.1818   -2.4670 S   0  0  0  0  0  0  0  0  0  0  0  0
   -2.5228    2.1172   -1.4188 O   0  0  0  0  0  0  0  0  0  0  0  0
   -2.9829    3.2107   -0.5920 C   0  0  0  0  0  0  0  0  0  0  0  0
   -4.1494    2.8228    0.2914 C   0  0  0  0  0  0  0  0  0  0  0  0
   -3.1567   -0.0793   -0.2591 O   0  0  0  0  0  0  0  0  0  0  0  0
   -3.6564   -1.3430   -0.7393 C   0  0  0  0  0  0  0  0  0  0  0  0
   -3.1248   -2.4985    0.0849 C   0  0  0  0  0  0  0  0  0  0  0  0
    1.0860    2.0820   -2.1739 H   0  0  0  0  0  0  0  0  0  0  0  0
    2.8082    2.4850   -2.1642 H   0  0  0  0  0  0  0  0  0  0  0  0
    2.1102    1.5735   -3.5206 H   0  0  0  0  0  0  0  0  0  0  0  0
    3.3624    0.0343   -2.0242 H   0  0  0  0  0  0  0  0  0  0  0  0
    1.6164   -0.3268   -1.9723 H   0  0  0  0  0  0  0  0  0  0  0  0
    2.5867   -3.3963    0.2602 H   0  0  0  0  0  0  0  0  0  0  0  0
    4.3645   -3.2183    0.1978 H   0  0  0  0  0  0  0  0  0  0  0  0
    3.6537   -4.0772    2.4216 H   0  0  0  0  0  0  0  0  0  0  0  0
    4.3269   -2.4455    2.5924 H   0  0  0  0  0  0  0  0  0  0  0  0
    2.5790   -2.6852    2.6323 H   0  0  0  0  0  0  0  0  0  0  0  0
   -0.0444   -0.1558    2.4540 H   0  0  0  0  0  0  0  0  0  0  0  0
   -1.5209   -0.8161    1.6611 H   0  0  0  0  0  0  0  0  0  0  0  0
   -2.1408    3.5687    0.0057 H   0  0  0  0  0  0  0  0  0  0  0  0
   -3.2655    3.9719   -1.3213 H   0  0  0  0  0  0  0  0  0  0  0  0
   -3.8395    2.0762    1.0192 H   0  0  0  0  0  0  0  0  0  0  0  0
   -4.5029    3.7043    0.8172 H   0  0  0  0  0  0  0  0  0  0  0  0
   -4.9578    2.4159   -0.3106 H   0  0  0  0  0  0  0  0  0  0  0  0
   -4.7411   -1.2607   -0.6535 H   0  0  0  0  0  0  0  0  0  0  0  0
   -3.3766   -1.4598   -1.7907 H   0  0  0  0  0  0  0  0  0  0  0  0
   -3.3749   -2.3660    1.1342 H   0  0  0  0  0  0  0  0  0  0  0  0
   -3.5763   -3.4190   -0.2710 H   0  0  0  0  0  0  0  0  0  0  0  0
   -2.0435   -2.5763   -0.0239 H   0  0  0  0  0  0  0  0  0  0  0  0
  1  2  1  0  0  0  0
  2  3  1  0  0  0  0
  3  4  2  0  0  0  0
  4  5  2  0  0  0  0
  4  6  2  0  0  0  0
  6  7  1  0  0  0  0
  7  8  1  0  0  0  0
  4  9  1  0  0  0  0
  9 10  1  0  0  0  0
 10 11  1  0  0  0  0
 11 12  1  0  0  0  0
 12 13  2  0  0  0  0
 12 14  2  0  0  0  0
 14 15  1  0  0  0  0
 15 16  1  0  0  0  0
 12 17  2  0  0  0  0
 17 18  1  0  0  0  0
 18 19  1  0  0  0  0
  1 20  1  0  0  0  0
  1 21  1  0  0  0  0
  1 22  1  0  0  0  0
  2 23  1  0  0  0  0
  2 24  1  0  0  0  0
  7 25  1  0  0  0  0
  7 26  1  0  0  0  0
  8 27  1  0  0  0  0
  8 28  1  0  0  0  0
  8 29  1  0  0  0  0
 10 30  1  0  0  0  0
 10 31  1  0  0  0  0
 15 32  1  0  0  0  0
 15 33  1  0  0  0  0
 16 34  1  0  0  0  0
 16 35  1  0  0  0  0
 16 36  1  0  0  0  0
 18 37  1  0  0  0  0
 18 38  1  0  0  0  0
 19 39  1  0  0  0  0
 19 40  1  0  0  0  0
 19 41  1  0  0  0  0
M  END
