 xtb: 6.7.1 (edcfbbe)
          04092509473D

 38 37  0     0  0            999 V2000
    1.3250   -3.5551   -2.1765 C   0  0  0  0  0  0  0  0  0  0  0  0
    2.5525   -2.6599   -2.2311 C   0  0  0  0  0  0  0  0  0  0  0  0
    2.3654   -1.4851   -1.4196 O   0  0  0  0  0  0  0  0  0  0  0  0
    2.6391   -1.5651   -0.1316 C   0  0  0  0  0  0  0  0  0  0  0  0
    3.0911   -2.5431    0.4176 O   0  0  0  0  0  0  0  0  0  0  0  0
    2.3374   -0.2610    0.5879 C   0  0  0  0  0  0  0  0  0  0  0  0
    0.9500    0.2535    0.2139 C   0  0  0  0  0  0  0  0  0  0  0  0
    0.8856    0.4218   -0.8658 H   0  0  0  0  0  0  0  0  0  0  0  0
    0.6227    1.5598    0.9188 C   0  0  0  0  0  0  0  0  0  0  0  0
   -0.3235    1.6999    1.6639 O   0  0  0  0  0  0  0  0  0  0  0  0
    1.4901    2.4885    0.6082 O   0  0  0  0  0  0  0  0  0  0  0  0
    1.3326    3.8062    1.1804 C   0  0  0  0  0  0  0  0  0  0  0  0
    2.4197    4.6955    0.6083 C   0  0  0  0  0  0  0  0  0  0  0  0
   -0.2922   -1.0082    0.6663 S   0  0  0  0  0  0  0  0  0  0  0  0
   -2.0285   -0.0256   -0.0473 P   0  0  0  0  0  0  0  0  0  0  0  0
   -1.7545    1.3111   -1.4462 S   0  0  0  0  0  0  0  0  0  0  0  0
   -2.9474   -1.2696   -0.4781 O   0  0  0  0  0  0  0  0  0  0  0  0
   -2.6253   -2.1152   -1.5877 C   0  0  0  0  0  0  0  0  0  0  0  0
   -2.8780    0.5192    1.1650 O   0  0  0  0  0  0  0  0  0  0  0  0
   -3.1028   -0.2610    2.3549 C   0  0  0  0  0  0  0  0  0  0  0  0
    1.4807   -4.4180   -2.8153 H   0  0  0  0  0  0  0  0  0  0  0  0
    1.1571   -3.8938   -1.1564 H   0  0  0  0  0  0  0  0  0  0  0  0
    0.4498   -3.0094   -2.5195 H   0  0  0  0  0  0  0  0  0  0  0  0
    2.7191   -2.2733   -3.2366 H   0  0  0  0  0  0  0  0  0  0  0  0
    3.4378   -3.1929   -1.8734 H   0  0  0  0  0  0  0  0  0  0  0  0
    3.0791    0.4834    0.2939 H   0  0  0  0  0  0  0  0  0  0  0  0
    2.4077   -0.4452    1.6606 H   0  0  0  0  0  0  0  0  0  0  0  0
    0.3320    4.1729    0.9325 H   0  0  0  0  0  0  0  0  0  0  0  0
    1.4114    3.7164    2.2679 H   0  0  0  0  0  0  0  0  0  0  0  0
    3.3994    4.3012    0.8605 H   0  0  0  0  0  0  0  0  0  0  0  0
    2.3289    4.7488   -0.4724 H   0  0  0  0  0  0  0  0  0  0  0  0
    2.3198    5.6930    1.0236 H   0  0  0  0  0  0  0  0  0  0  0  0
   -1.7641   -2.7370   -1.3427 H   0  0  0  0  0  0  0  0  0  0  0  0
   -2.4164   -1.5123   -2.4725 H   0  0  0  0  0  0  0  0  0  0  0  0
   -3.5054   -2.7332   -1.7500 H   0  0  0  0  0  0  0  0  0  0  0  0
   -2.1563   -0.4081    2.8750 H   0  0  0  0  0  0  0  0  0  0  0  0
   -3.5479   -1.2203    2.0968 H   0  0  0  0  0  0  0  0  0  0  0  0
   -3.7815    0.3335    2.9601 H   0  0  0  0  0  0  0  0  0  0  0  0
  1  2  1  0  0  0  0
  2  3  1  0  0  0  0
  3  4  1  0  0  0  0
  4  5  2  0  0  0  0
  4  6  1  0  0  0  0
  6  7  1  0  0  0  0
  7  8  1  0  0  0  0
  7  9  1  0  0  0  0
  9 10  2  0  0  0  0
  9 11  4  0  0  0  0
 11 12  1  0  0  0  0
 12 13  1  0  0  0  0
  7 14  1  0  0  0  0
 14 15  1  0  0  0  0
 15 16  2  0  0  0  0
 15 17  1  0  0  0  0
 17 18  1  0  0  0  0
 15 19  2  0  0  0  0
 19 20  1  0  0  0  0
  1 21  1  0  0  0  0
  1 22  1  0  0  0  0
  1 23  1  0  0  0  0
  2 24  1  0  0  0  0
  2 25  1  0  0  0  0
  6 26  1  0  0  0  0
  6 27  1  0  0  0  0
 12 28  1  0  0  0  0
 12 29  1  0  0  0  0
 13 30  1  0  0  0  0
 13 31  1  0  0  0  0
 13 32  1  0  0  0  0
 18 33  1  0  0  0  0
 18 34  1  0  0  0  0
 18 35  1  0  0  0  0
 20 36  1  0  0  0  0
 20 37  1  0  0  0  0
 20 38  1  0  0  0  0
M  END
