 xtb: 6.7.1 (edcfbbe)
          04092505213D

 41 40  0     0  0            999 V2000
    4.1745   -2.6348   -0.0052 C   0  0  0  0  0  0  0  0  0  0  0  0
    4.5352   -1.2205    0.4011 C   0  0  0  0  0  0  0  0  0  0  0  0
    3.3849   -0.4659    0.8235 O   0  0  0  0  0  0  0  0  0  0  0  0
    2.2288   -0.0418   -0.1814 P   0  0  0  0  0  0  0  0  0  0  0  0
    2.8410    0.5140   -1.9635 S   0  0  0  0  0  0  0  0  0  0  0  0
    1.4631    1.0539    0.6764 O   0  0  0  0  0  0  0  0  0  0  0  0
    1.7262    2.4608    0.5307 C   0  0  0  0  0  0  0  0  0  0  0  0
    3.0788    2.8379    1.0973 C   0  0  0  0  0  0  0  0  0  0  0  0
    0.8516   -1.6266   -0.0681 S   0  0  0  0  0  0  0  0  0  0  0  0
   -0.1419   -1.1814   -1.5197 C   0  0  0  0  0  0  0  0  0  0  0  0
   -0.7776    0.5258   -1.5160 S   0  0  0  0  0  0  0  0  0  0  0  0
   -2.1683    0.4154    0.0697 P   0  0  0  0  0  0  0  0  0  0  0  0
   -3.2932    2.0006    0.3043 S   0  0  0  0  0  0  0  0  0  0  0  0
   -1.2260    0.0385    1.2807 O   0  0  0  0  0  0  0  0  0  0  0  0
   -1.6261    0.2413    2.6514 C   0  0  0  0  0  0  0  0  0  0  0  0
   -2.7334   -0.7077    3.0561 C   0  0  0  0  0  0  0  0  0  0  0  0
   -2.9509   -0.9500   -0.1823 O   0  0  0  0  0  0  0  0  0  0  0  0
   -4.1058   -1.0214   -1.0411 C   0  0  0  0  0  0  0  0  0  0  0  0
   -4.8954   -2.2563   -0.6553 C   0  0  0  0  0  0  0  0  0  0  0  0
    3.6034   -3.1206    0.7819 H   0  0  0  0  0  0  0  0  0  0  0  0
    3.5754   -2.6193   -0.9145 H   0  0  0  0  0  0  0  0  0  0  0  0
    5.0838   -3.1969   -0.1922 H   0  0  0  0  0  0  0  0  0  0  0  0
    5.0075   -0.6907   -0.4323 H   0  0  0  0  0  0  0  0  0  0  0  0
    5.1915   -1.2049    1.2722 H   0  0  0  0  0  0  0  0  0  0  0  0
    1.6622    2.7185   -0.5324 H   0  0  0  0  0  0  0  0  0  0  0  0
    0.9080    2.9424    1.0698 H   0  0  0  0  0  0  0  0  0  0  0  0
    3.1614    2.4988    2.1266 H   0  0  0  0  0  0  0  0  0  0  0  0
    3.8673    2.3721    0.5073 H   0  0  0  0  0  0  0  0  0  0  0  0
    3.1976    3.9161    1.0584 H   0  0  0  0  0  0  0  0  0  0  0  0
   -0.9660   -1.8887   -1.5562 H   0  0  0  0  0  0  0  0  0  0  0  0
    0.4760   -1.2430   -2.4148 H   0  0  0  0  0  0  0  0  0  0  0  0
   -0.7090    0.0661    3.2158 H   0  0  0  0  0  0  0  0  0  0  0  0
   -1.9446    1.2824    2.7682 H   0  0  0  0  0  0  0  0  0  0  0  0
   -3.6402   -0.4711    2.5013 H   0  0  0  0  0  0  0  0  0  0  0  0
   -2.4438   -1.7333    2.8429 H   0  0  0  0  0  0  0  0  0  0  0  0
   -2.9306   -0.5984    4.1180 H   0  0  0  0  0  0  0  0  0  0  0  0
   -4.6954   -0.1080   -0.9096 H   0  0  0  0  0  0  0  0  0  0  0  0
   -3.7635   -1.0734   -2.0785 H   0  0  0  0  0  0  0  0  0  0  0  0
   -4.2725   -3.1412   -0.7481 H   0  0  0  0  0  0  0  0  0  0  0  0
   -5.2403   -2.1757    0.3715 H   0  0  0  0  0  0  0  0  0  0  0  0
   -5.7527   -2.3492   -1.3137 H   0  0  0  0  0  0  0  0  0  0  0  0
  1  2  1  0  0  0  0
  2  3  1  0  0  0  0
  3  4  2  0  0  0  0
  4  5  2  0  0  0  0
  4  6  2  0  0  0  0
  6  7  1  0  0  0  0
  7  8  1  0  0  0  0
  4  9  1  0  0  0  0
  9 10  1  0  0  0  0
 10 11  1  0  0  0  0
 11 12  1  0  0  0  0
 12 13  2  0  0  0  0
 12 14  2  0  0  0  0
 14 15  1  0  0  0  0
 15 16  1  0  0  0  0
 12 17  2  0  0  0  0
 17 18  1  0  0  0  0
 18 19  1  0  0  0  0
  1 20  1  0  0  0  0
  1 21  1  0  0  0  0
  1 22  1  0  0  0  0
  2 23  1  0  0  0  0
  2 24  1  0  0  0  0
  7 25  1  0  0  0  0
  7 26  1  0  0  0  0
  8 27  1  0  0  0  0
  8 28  1  0  0  0  0
  8 29  1  0  0  0  0
 10 30  1  0  0  0  0
 10 31  1  0  0  0  0
 15 32  1  0  0  0  0
 15 33  1  0  0  0  0
 16 34  1  0  0  0  0
 16 35  1  0  0  0  0
 16 36  1  0  0  0  0
 18 37  1  0  0  0  0
 18 38  1  0  0  0  0
 19 39  1  0  0  0  0
 19 40  1  0  0  0  0
 19 41  1  0  0  0  0
M  END
