41
 xtb: 6.7.1 (edcfbbe)
C            3.29198556316082       -2.24106919738367        1.76393848377177
C            2.08052803188694       -2.24054560787662        0.86457672153757
O            1.62014058968099       -0.87541582406633        0.57161085510113
P            2.38802623723587        0.08074488705776       -0.46845298229920
S            3.21315024007176       -0.78017679364323       -2.00630066213654
O            3.44953193294976        0.93970667284215        0.37996395077075
C            3.20529765826217        1.38720749589741        1.76735038298806
C            2.97527379472455        2.87631137766913        1.80269064075112
S            0.89606685155263        1.52658102120778       -0.89012818443597
C           -0.08883968002968        0.65750584507531       -2.17307460342040
S           -1.04131517099085       -0.83052402514220       -1.66893409319563
P           -2.35131926945958        0.00119827738469       -0.23027362193748
S           -3.03758482613210        1.78216551509792       -0.61867826563716
O           -1.50703129512061       -0.18668128546520        1.11819618904425
C           -1.88278187101770        0.46950644576487        2.38036188078293
C           -0.61469108551929        0.68740821615844        3.16496021796432
O           -3.43708190019308       -1.18015823954790       -0.07431133148835
C           -4.55031866949012       -1.31281037726667       -1.02561923846864
C           -5.36374371920344       -2.50410436573369       -0.59219780241795
H            3.08881843435935       -1.70674137362225        2.69632585666180
H            3.54494283318569       -3.27786181815795        2.00906369744775
H            4.15848389488031       -1.78803795144119        1.27225406728435
H            1.21751711649044       -2.70255964551070        1.34848841799844
H            2.27279168619926       -2.74889092388099       -0.08528905513402
H            2.36344289407030        0.82964257120635        2.18485881362091
H            4.11361410457079        1.10771202889260        2.30617539431491
H            3.81125425588622        3.41391767021500        1.34649347086600
H            2.04883207147392        3.15746824385986        1.29325668304961
H            2.89411909614013        3.19063054470067        2.84861009161176
H            0.57401888816826        0.31992899925105       -2.97548533360386
H           -0.77691018350375        1.41318619429284       -2.56203134037453
H           -2.38284753192531        1.41554852895804        2.15213516141978
H           -2.58197783611954       -0.19555687084341        2.89574288045384
H           -0.86861923805855        1.12488975590705        4.13566082215003
H           -0.09185697654649       -0.25773686307965        3.33899503050619
H            0.05356046151162        1.37612418060035        2.63908326159927
H           -5.13373085650551       -0.38786753199011       -0.99890462962656
H           -4.13437265605820       -1.44917885886639       -2.02958403694287
H           -4.76443646088584       -3.41858384963761       -0.61392169945507
H           -5.76019124087018       -2.35884822320037        0.41674203831733
H           -6.20598224229755       -2.62601323014124       -1.28000546268174
