41
 xtb: 6.7.1 (edcfbbe)
C            5.92440369282849       -0.61237174317251        0.53714917690841
C            4.71907155254552       -0.78103645095084       -0.35054560481260
O            3.60405592941455       -0.07273275686974        0.29385385675487
P            2.20759697195854        0.16010533541982       -0.47826229019883
S            2.30580893241185        0.77768105156001       -2.32314870154874
O            1.44849407919022        1.10876705438862        0.56826576266557
C            1.44816326159873        2.57421215893800        0.44257578157318
C            2.76046446722798        3.16715678829941        0.89220572190827
S            1.28449835257071       -1.71825336028097       -0.15680102209482
C           -0.11519931683903       -1.66874632987408       -1.36510159852442
S           -1.76831148581874       -1.92275357816211       -0.61954835398585
P           -2.27575601310753        0.05365906309494       -0.00987285482295
S           -2.03972677034028        1.43906526485298       -1.34999278471157
O           -1.43686990939263        0.38589070829073        1.31213760909293
C           -1.47782389684907       -0.46485459241029        2.51568172003675
C           -2.23269161550986        0.25113610340063        3.60644333777236
O           -3.75108710986246       -0.22807434163552        0.56475356089169
C           -4.97894554087995        0.05517668875983       -0.19561270170421
C           -5.24634766069526       -0.98807831735935       -1.25055652923417
H            6.18739730057290        0.44391839851943        0.63911295174982
H            5.74444976908208       -1.03412993430027        1.52941672151023
H            6.77156646495407       -1.13799064960894        0.08643278778840
H            4.43833536958110       -1.83316086426818       -0.46077640552989
H            4.87960940376073       -0.34363805549457       -1.34022476115244
H            1.21276501463568        2.83078447926253       -0.59445703040481
H            0.61979819814573        2.88408073709557        1.08305730148193
H            3.58016303257810        2.87840653267081        0.22749174487022
H            2.67661574003296        4.25873192895401        0.87491160988757
H            3.00176012581866        2.85528535998281        1.91237351541070
H            0.02126115800687       -2.49976234105134       -2.06117858356843
H           -0.08910021518801       -0.72851321438128       -1.92683459147257
H           -1.92971717331653       -1.42987899155140        2.26917565948364
H           -0.43015596417761       -0.62633676228055        2.78040145133470
H           -1.77306913133166        1.21850782573382        3.82766477042245
H           -3.27826537344609        0.40674288784965        3.32699844942495
H           -2.20358466296059       -0.35936875036203        4.51478914414434
H           -5.75504270778461        0.06050773189642        0.57196351295250
H           -4.89037668157341        1.05814868720877       -0.62291454277699
H           -4.49167907702667       -0.96342544915983       -2.04168502807146
H           -5.27716349251048       -1.99049674509090       -0.81394774635005
H           -6.22098789773272       -0.77973628769990       -1.70400797600268
