 xtb: 6.7.1 (edcfbbe)
          04092505203D

 41 40  0     0  0            999 V2000
    2.2193    2.3499    1.6523 C   0  0  0  0  0  0  0  0  0  0  0  0
    1.2796    1.2763    2.1562 C   0  0  0  0  0  0  0  0  0  0  0  0
    1.7819   -0.0657    1.9478 O   0  0  0  0  0  0  0  0  0  0  0  0
    2.3808   -0.6952    0.6337 P   0  0  0  0  0  0  0  0  0  0  0  0
    2.5047   -2.6410    0.7928 S   0  0  0  0  0  0  0  0  0  0  0  0
    3.7739    0.0531    0.4789 O   0  0  0  0  0  0  0  0  0  0  0  0
    4.8566   -0.4860   -0.2990 C   0  0  0  0  0  0  0  0  0  0  0  0
    4.5451   -0.5121   -1.7815 C   0  0  0  0  0  0  0  0  0  0  0  0
    1.2040    0.0271   -0.9982 S   0  0  0  0  0  0  0  0  0  0  0  0
   -0.0016   -1.3176   -0.9804 C   0  0  0  0  0  0  0  0  0  0  0  0
   -1.1442   -1.2179    0.4227 S   0  0  0  0  0  0  0  0  0  0  0  0
   -2.2849    0.3931   -0.3519 P   0  0  0  0  0  0  0  0  0  0  0  0
   -2.6359    0.3651   -2.2850 S   0  0  0  0  0  0  0  0  0  0  0  0
   -1.4422    1.6465    0.1309 O   0  0  0  0  0  0  0  0  0  0  0  0
   -1.4536    2.9034   -0.5758 C   0  0  0  0  0  0  0  0  0  0  0  0
   -2.7489    3.6476   -0.3319 C   0  0  0  0  0  0  0  0  0  0  0  0
   -3.5288    0.4815    0.6297 O   0  0  0  0  0  0  0  0  0  0  0  0
   -4.3985   -0.6077    0.9865 C   0  0  0  0  0  0  0  0  0  0  0  0
   -4.9320   -1.3566   -0.2172 C   0  0  0  0  0  0  0  0  0  0  0  0
    3.2047    2.2251    2.0936 H   0  0  0  0  0  0  0  0  0  0  0  0
    2.3099    2.2953    0.5689 H   0  0  0  0  0  0  0  0  0  0  0  0
    1.8234    3.3229    1.9279 H   0  0  0  0  0  0  0  0  0  0  0  0
    0.3020    1.3505    1.6724 H   0  0  0  0  0  0  0  0  0  0  0  0
    1.1536    1.3258    3.2390 H   0  0  0  0  0  0  0  0  0  0  0  0
    5.6924    0.1783   -0.0751 H   0  0  0  0  0  0  0  0  0  0  0  0
    5.0748   -1.4949    0.0649 H   0  0  0  0  0  0  0  0  0  0  0  0
    5.4360   -0.8027   -2.3290 H   0  0  0  0  0  0  0  0  0  0  0  0
    3.7571   -1.2357   -1.9845 H   0  0  0  0  0  0  0  0  0  0  0  0
    4.2177    0.4680   -2.1189 H   0  0  0  0  0  0  0  0  0  0  0  0
    0.5214   -2.2704   -0.8900 H   0  0  0  0  0  0  0  0  0  0  0  0
   -0.5663   -1.2542   -1.9113 H   0  0  0  0  0  0  0  0  0  0  0  0
   -0.5907    3.4407   -0.1810 H   0  0  0  0  0  0  0  0  0  0  0  0
   -1.3113    2.7059   -1.6431 H   0  0  0  0  0  0  0  0  0  0  0  0
   -2.7125    4.6123   -0.8279 H   0  0  0  0  0  0  0  0  0  0  0  0
   -3.5813    3.0709   -0.7341 H   0  0  0  0  0  0  0  0  0  0  0  0
   -2.9061    3.7907    0.7337 H   0  0  0  0  0  0  0  0  0  0  0  0
   -3.8451   -1.2814    1.6470 H   0  0  0  0  0  0  0  0  0  0  0  0
   -5.2024   -0.1224    1.5430 H   0  0  0  0  0  0  0  0  0  0  0  0
   -5.6476   -2.1037    0.1112 H   0  0  0  0  0  0  0  0  0  0  0  0
   -5.4186   -0.6711   -0.9070 H   0  0  0  0  0  0  0  0  0  0  0  0
   -4.1173   -1.8545   -0.7419 H   0  0  0  0  0  0  0  0  0  0  0  0
  1  2  1  0  0  0  0
  2  3  1  0  0  0  0
  3  4  2  0  0  0  0
  4  5  2  0  0  0  0
  4  6  2  0  0  0  0
  6  7  1  0  0  0  0
  7  8  1  0  0  0  0
  4  9  1  0  0  0  0
  9 10  1  0  0  0  0
 10 11  1  0  0  0  0
 11 12  1  0  0  0  0
 12 13  2  0  0  0  0
 12 14  2  0  0  0  0
 14 15  1  0  0  0  0
 15 16  1  0  0  0  0
 12 17  2  0  0  0  0
 17 18  1  0  0  0  0
 18 19  1  0  0  0  0
  1 20  1  0  0  0  0
  1 21  1  0  0  0  0
  1 22  1  0  0  0  0
  2 23  1  0  0  0  0
  2 24  1  0  0  0  0
  7 25  1  0  0  0  0
  7 26  1  0  0  0  0
  8 27  1  0  0  0  0
  8 28  1  0  0  0  0
  8 29  1  0  0  0  0
 10 30  1  0  0  0  0
 10 31  1  0  0  0  0
 15 32  1  0  0  0  0
 15 33  1  0  0  0  0
 16 34  1  0  0  0  0
 16 35  1  0  0  0  0
 16 36  1  0  0  0  0
 18 37  1  0  0  0  0
 18 38  1  0  0  0  0
 19 39  1  0  0  0  0
 19 40  1  0  0  0  0
 19 41  1  0  0  0  0
M  END
