 xtb: 6.7.1 (edcfbbe)
          04092505213D

 41 40  0     0  0            999 V2000
    3.5410   -0.8960   -2.9809 C   0  0  0  0  0  0  0  0  0  0  0  0
    2.2388   -0.5889   -2.2721 C   0  0  0  0  0  0  0  0  0  0  0  0
    2.4692    0.3211   -1.1702 O   0  0  0  0  0  0  0  0  0  0  0  0
    2.5342   -0.1373    0.3344 P   0  0  0  0  0  0  0  0  0  0  0  0
    2.9657    1.4050    1.4565 S   0  0  0  0  0  0  0  0  0  0  0  0
    3.5526   -1.3550    0.2705 O   0  0  0  0  0  0  0  0  0  0  0  0
    3.6990   -2.3701    1.2832 C   0  0  0  0  0  0  0  0  0  0  0  0
    3.9716   -1.7935    2.6561 C   0  0  0  0  0  0  0  0  0  0  0  0
    0.6849   -1.0832    0.7838 S   0  0  0  0  0  0  0  0  0  0  0  0
   -0.1649    0.4447    1.3146 C   0  0  0  0  0  0  0  0  0  0  0  0
   -1.9380    0.1911    1.4224 S   0  0  0  0  0  0  0  0  0  0  0  0
   -2.4506    0.6151   -0.6174 P   0  0  0  0  0  0  0  0  0  0  0  0
   -0.9687    0.9153   -1.8580 S   0  0  0  0  0  0  0  0  0  0  0  0
   -3.3609    1.8993   -0.5942 O   0  0  0  0  0  0  0  0  0  0  0  0
   -4.5245    2.0464    0.2601 C   0  0  0  0  0  0  0  0  0  0  0  0
   -4.2408    3.0581    1.3525 C   0  0  0  0  0  0  0  0  0  0  0  0
   -3.5189   -0.5075   -0.9711 O   0  0  0  0  0  0  0  0  0  0  0  0
   -3.3445   -1.9259   -0.7922 C   0  0  0  0  0  0  0  0  0  0  0  0
   -2.1385   -2.4636   -1.5334 C   0  0  0  0  0  0  0  0  0  0  0  0
    3.3383   -1.5363   -3.8334 H   0  0  0  0  0  0  0  0  0  0  0  0
    4.0014    0.0261   -3.3247 H   0  0  0  0  0  0  0  0  0  0  0  0
    4.2268   -1.3991   -2.3040 H   0  0  0  0  0  0  0  0  0  0  0  0
    1.7683   -1.4992   -1.8899 H   0  0  0  0  0  0  0  0  0  0  0  0
    1.5340   -0.0646   -2.9211 H   0  0  0  0  0  0  0  0  0  0  0  0
    2.7890   -2.9764    1.2913 H   0  0  0  0  0  0  0  0  0  0  0  0
    4.5405   -2.9668    0.9270 H   0  0  0  0  0  0  0  0  0  0  0  0
    4.1556   -2.6017    3.3566 H   0  0  0  0  0  0  0  0  0  0  0  0
    4.8374   -1.1361    2.6270 H   0  0  0  0  0  0  0  0  0  0  0  0
    3.1151   -1.2144    2.9983 H   0  0  0  0  0  0  0  0  0  0  0  0
    0.0511    1.2278    0.5854 H   0  0  0  0  0  0  0  0  0  0  0  0
    0.1921    0.7219    2.3042 H   0  0  0  0  0  0  0  0  0  0  0  0
   -5.3184    2.3904   -0.4044 H   0  0  0  0  0  0  0  0  0  0  0  0
   -4.7895    1.0731    0.6780 H   0  0  0  0  0  0  0  0  0  0  0  0
   -5.1482    3.2276    1.9231 H   0  0  0  0  0  0  0  0  0  0  0  0
   -3.4649    2.6917    2.0203 H   0  0  0  0  0  0  0  0  0  0  0  0
   -3.9128    3.9966    0.9139 H   0  0  0  0  0  0  0  0  0  0  0  0
   -3.2628   -2.1300    0.2791 H   0  0  0  0  0  0  0  0  0  0  0  0
   -4.2735   -2.3457   -1.1819 H   0  0  0  0  0  0  0  0  0  0  0  0
   -2.1220   -3.5459   -1.4566 H   0  0  0  0  0  0  0  0  0  0  0  0
   -2.1784   -2.1754   -2.5811 H   0  0  0  0  0  0  0  0  0  0  0  0
   -1.2224   -2.0663   -1.0986 H   0  0  0  0  0  0  0  0  0  0  0  0
  1  2  1  0  0  0  0
  2  3  1  0  0  0  0
  3  4  2  0  0  0  0
  4  5  2  0  0  0  0
  4  6  2  0  0  0  0
  6  7  1  0  0  0  0
  7  8  1  0  0  0  0
  4  9  1  0  0  0  0
  9 10  1  0  0  0  0
 10 11  1  0  0  0  0
 11 12  1  0  0  0  0
 12 13  2  0  0  0  0
 12 14  2  0  0  0  0
 14 15  1  0  0  0  0
 15 16  1  0  0  0  0
 12 17  2  0  0  0  0
 17 18  1  0  0  0  0
 18 19  1  0  0  0  0
  1 20  1  0  0  0  0
  1 21  1  0  0  0  0
  1 22  1  0  0  0  0
  2 23  1  0  0  0  0
  2 24  1  0  0  0  0
  7 25  1  0  0  0  0
  7 26  1  0  0  0  0
  8 27  1  0  0  0  0
  8 28  1  0  0  0  0
  8 29  1  0  0  0  0
 10 30  1  0  0  0  0
 10 31  1  0  0  0  0
 15 32  1  0  0  0  0
 15 33  1  0  0  0  0
 16 34  1  0  0  0  0
 16 35  1  0  0  0  0
 16 36  1  0  0  0  0
 18 37  1  0  0  0  0
 18 38  1  0  0  0  0
 19 39  1  0  0  0  0
 19 40  1  0  0  0  0
 19 41  1  0  0  0  0
M  END
