 xtb: 6.7.1 (edcfbbe)
          04092513593D

 41 40  0     0  0            999 V2000
    4.0283   -1.5322   -2.6008 C   0  0  0  0  0  0  0  0  0  0  0  0
    4.2542   -1.7569   -1.1192 C   0  0  0  0  0  0  0  0  0  0  0  0
    3.0286   -1.7302   -0.3650 O   0  0  0  0  0  0  0  0  0  0  0  0
    2.2305   -0.3966   -0.0318 P   0  0  0  0  0  0  0  0  0  0  0  0
    3.3407    1.1873    0.3026 S   0  0  0  0  0  0  0  0  0  0  0  0
    1.3071   -0.8766    1.1640 O   0  0  0  0  0  0  0  0  0  0  0  0
    1.6093   -0.5976    2.5439 C   0  0  0  0  0  0  0  0  0  0  0  0
    2.7144   -1.4910    3.0683 C   0  0  0  0  0  0  0  0  0  0  0  0
    0.7840   -0.2680   -1.5644 S   0  0  0  0  0  0  0  0  0  0  0  0
    0.2743    1.4478   -1.2700 C   0  0  0  0  0  0  0  0  0  0  0  0
   -0.4821    1.7305    0.3577 S   0  0  0  0  0  0  0  0  0  0  0  0
   -2.2234    0.5642    0.1002 P   0  0  0  0  0  0  0  0  0  0  0  0
   -2.9434    0.4236   -1.7198 S   0  0  0  0  0  0  0  0  0  0  0  0
   -3.2230    1.1738    1.1803 O   0  0  0  0  0  0  0  0  0  0  0  0
   -3.9408    2.4079    0.9630 C   0  0  0  0  0  0  0  0  0  0  0  0
   -5.3942    2.1292    0.6304 C   0  0  0  0  0  0  0  0  0  0  0  0
   -1.8111   -0.7794    0.8222 O   0  0  0  0  0  0  0  0  0  0  0  0
   -2.4523   -2.0501    0.5621 C   0  0  0  0  0  0  0  0  0  0  0  0
   -1.5595   -2.9195   -0.3006 C   0  0  0  0  0  0  0  0  0  0  0  0
    3.2832   -2.2262   -2.9809 H   0  0  0  0  0  0  0  0  0  0  0  0
    3.6839   -0.5150   -2.7804 H   0  0  0  0  0  0  0  0  0  0  0  0
    4.9644   -1.6855   -3.1291 H   0  0  0  0  0  0  0  0  0  0  0  0
    4.9281   -0.9955   -0.7132 H   0  0  0  0  0  0  0  0  0  0  0  0
    4.6581   -2.7517   -0.9243 H   0  0  0  0  0  0  0  0  0  0  0  0
    1.8878    0.4581    2.6331 H   0  0  0  0  0  0  0  0  0  0  0  0
    0.6640   -0.7709    3.0608 H   0  0  0  0  0  0  0  0  0  0  0  0
    2.8483   -1.3079    4.1300 H   0  0  0  0  0  0  0  0  0  0  0  0
    2.4625   -2.5362    2.9101 H   0  0  0  0  0  0  0  0  0  0  0  0
    3.6469   -1.2703    2.5504 H   0  0  0  0  0  0  0  0  0  0  0  0
   -0.4436    1.6878   -2.0536 H   0  0  0  0  0  0  0  0  0  0  0  0
    1.1432    2.1039   -1.3105 H   0  0  0  0  0  0  0  0  0  0  0  0
   -3.8464    2.9595    1.9003 H   0  0  0  0  0  0  0  0  0  0  0  0
   -3.4591    2.9714    0.1591 H   0  0  0  0  0  0  0  0  0  0  0  0
   -5.4691    1.5938   -0.3136 H   0  0  0  0  0  0  0  0  0  0  0  0
   -5.8497    1.5299    1.4137 H   0  0  0  0  0  0  0  0  0  0  0  0
   -5.9255    3.0720    0.5456 H   0  0  0  0  0  0  0  0  0  0  0  0
   -2.6111   -2.4908    1.5477 H   0  0  0  0  0  0  0  0  0  0  0  0
   -3.4169   -1.8768    0.0767 H   0  0  0  0  0  0  0  0  0  0  0  0
   -0.5745   -3.0063    0.1516 H   0  0  0  0  0  0  0  0  0  0  0  0
   -2.0029   -3.9055   -0.3957 H   0  0  0  0  0  0  0  0  0  0  0  0
   -1.4492   -2.4798   -1.2900 H   0  0  0  0  0  0  0  0  0  0  0  0
  1  2  1  0  0  0  0
  2  3  1  0  0  0  0
  3  4  2  0  0  0  0
  4  5  2  0  0  0  0
  4  6  2  0  0  0  0
  6  7  1  0  0  0  0
  7  8  1  0  0  0  0
  4  9  1  0  0  0  0
  9 10  1  0  0  0  0
 10 11  1  0  0  0  0
 11 12  1  0  0  0  0
 12 13  2  0  0  0  0
 12 14  2  0  0  0  0
 14 15  1  0  0  0  0
 15 16  1  0  0  0  0
 12 17  2  0  0  0  0
 17 18  1  0  0  0  0
 18 19  1  0  0  0  0
  1 20  1  0  0  0  0
  1 21  1  0  0  0  0
  1 22  1  0  0  0  0
  2 23  1  0  0  0  0
  2 24  1  0  0  0  0
  7 25  1  0  0  0  0
  7 26  1  0  0  0  0
  8 27  1  0  0  0  0
  8 28  1  0  0  0  0
  8 29  1  0  0  0  0
 10 30  1  0  0  0  0
 10 31  1  0  0  0  0
 15 32  1  0  0  0  0
 15 33  1  0  0  0  0
 16 34  1  0  0  0  0
 16 35  1  0  0  0  0
 16 36  1  0  0  0  0
 18 37  1  0  0  0  0
 18 38  1  0  0  0  0
 19 39  1  0  0  0  0
 19 40  1  0  0  0  0
 19 41  1  0  0  0  0
M  END
