 xtb: 6.7.1 (edcfbbe)
          04092505213D

 41 40  0     0  0            999 V2000
    3.9454   -2.0742   -2.2294 C   0  0  0  0  0  0  0  0  0  0  0  0
    4.4949   -1.7459   -0.8566 C   0  0  0  0  0  0  0  0  0  0  0  0
    3.4580   -1.4050    0.0830 O   0  0  0  0  0  0  0  0  0  0  0  0
    2.5514   -0.1070   -0.0622 P   0  0  0  0  0  0  0  0  0  0  0  0
    3.4487    1.5154   -0.6777 S   0  0  0  0  0  0  0  0  0  0  0  0
    1.9720    0.0439    1.3946 O   0  0  0  0  0  0  0  0  0  0  0  0
    1.3478   -1.0446    2.1228 C   0  0  0  0  0  0  0  0  0  0  0  0
    0.4233   -0.4393    3.1584 C   0  0  0  0  0  0  0  0  0  0  0  0
    0.9157   -0.7752   -1.2634 S   0  0  0  0  0  0  0  0  0  0  0  0
    0.2656    0.8700   -1.6378 C   0  0  0  0  0  0  0  0  0  0  0  0
   -0.3474    1.7402   -0.1673 S   0  0  0  0  0  0  0  0  0  0  0  0
   -2.1815    0.6991   -0.0292 P   0  0  0  0  0  0  0  0  0  0  0  0
   -3.2812    0.6194   -1.6512 S   0  0  0  0  0  0  0  0  0  0  0  0
   -2.7403    1.5345    1.1950 O   0  0  0  0  0  0  0  0  0  0  0  0
   -4.1540    1.6789    1.4448 C   0  0  0  0  0  0  0  0  0  0  0  0
   -4.7957    0.3629    1.8328 C   0  0  0  0  0  0  0  0  0  0  0  0
   -1.8147   -0.7174    0.5934 O   0  0  0  0  0  0  0  0  0  0  0  0
   -2.1050   -1.9982   -0.0026 C   0  0  0  0  0  0  0  0  0  0  0  0
   -2.6405   -2.9244    1.0710 C   0  0  0  0  0  0  0  0  0  0  0  0
    3.1640   -2.8264   -2.1562 H   0  0  0  0  0  0  0  0  0  0  0  0
    3.5302   -1.1785   -2.6888 H   0  0  0  0  0  0  0  0  0  0  0  0
    4.7492   -2.4479   -2.8555 H   0  0  0  0  0  0  0  0  0  0  0  0
    5.1958   -0.9077   -0.9132 H   0  0  0  0  0  0  0  0  0  0  0  0
    4.9818   -2.6087   -0.3998 H   0  0  0  0  0  0  0  0  0  0  0  0
    0.8007   -1.6730    1.4138 H   0  0  0  0  0  0  0  0  0  0  0  0
    2.1450   -1.6302    2.5843 H   0  0  0  0  0  0  0  0  0  0  0  0
   -0.3748    0.1177    2.6723 H   0  0  0  0  0  0  0  0  0  0  0  0
   -0.0081   -1.2330    3.7599 H   0  0  0  0  0  0  0  0  0  0  0  0
    0.9787    0.2395    3.7993 H   0  0  0  0  0  0  0  0  0  0  0  0
   -0.5449    0.7423   -2.3558 H   0  0  0  0  0  0  0  0  0  0  0  0
    1.0673    1.4828   -2.0495 H   0  0  0  0  0  0  0  0  0  0  0  0
   -4.2027    2.4101    2.2527 H   0  0  0  0  0  0  0  0  0  0  0  0
   -4.6248    2.0874    0.5452 H   0  0  0  0  0  0  0  0  0  0  0  0
   -5.8323    0.5346    2.1059 H   0  0  0  0  0  0  0  0  0  0  0  0
   -4.7633   -0.3228    0.9865 H   0  0  0  0  0  0  0  0  0  0  0  0
   -4.2680   -0.0785    2.6743 H   0  0  0  0  0  0  0  0  0  0  0  0
   -2.8280   -1.8549   -0.8124 H   0  0  0  0  0  0  0  0  0  0  0  0
   -1.1724   -2.3794   -0.4267 H   0  0  0  0  0  0  0  0  0  0  0  0
   -1.9268   -3.0001    1.8862 H   0  0  0  0  0  0  0  0  0  0  0  0
   -3.5839   -2.5543    1.4620 H   0  0  0  0  0  0  0  0  0  0  0  0
   -2.7961   -3.9075    0.6387 H   0  0  0  0  0  0  0  0  0  0  0  0
  1  2  1  0  0  0  0
  2  3  1  0  0  0  0
  3  4  2  0  0  0  0
  4  5  2  0  0  0  0
  4  6  2  0  0  0  0
  6  7  1  0  0  0  0
  7  8  1  0  0  0  0
  4  9  1  0  0  0  0
  9 10  1  0  0  0  0
 10 11  1  0  0  0  0
 11 12  1  0  0  0  0
 12 13  2  0  0  0  0
 12 14  2  0  0  0  0
 14 15  1  0  0  0  0
 15 16  1  0  0  0  0
 12 17  2  0  0  0  0
 17 18  1  0  0  0  0
 18 19  1  0  0  0  0
  1 20  1  0  0  0  0
  1 21  1  0  0  0  0
  1 22  1  0  0  0  0
  2 23  1  0  0  0  0
  2 24  1  0  0  0  0
  7 25  1  0  0  0  0
  7 26  1  0  0  0  0
  8 27  1  0  0  0  0
  8 28  1  0  0  0  0
  8 29  1  0  0  0  0
 10 30  1  0  0  0  0
 10 31  1  0  0  0  0
 15 32  1  0  0  0  0
 15 33  1  0  0  0  0
 16 34  1  0  0  0  0
 16 35  1  0  0  0  0
 16 36  1  0  0  0  0
 18 37  1  0  0  0  0
 18 38  1  0  0  0  0
 19 39  1  0  0  0  0
 19 40  1  0  0  0  0
 19 41  1  0  0  0  0
M  END
