 xtb: 6.7.1 (edcfbbe)
          04092507313D

 38 37  0     0  0            999 V2000
    4.5096    0.8603   -1.1637 C   0  0  0  0  0  0  0  0  0  0  0  0
    4.2317   -0.3546   -2.0335 C   0  0  0  0  0  0  0  0  0  0  0  0
    2.8783   -0.8215   -1.8712 O   0  0  0  0  0  0  0  0  0  0  0  0
    2.5978   -1.5937   -0.8409 C   0  0  0  0  0  0  0  0  0  0  0  0
    3.4007   -1.9701   -0.0183 O   0  0  0  0  0  0  0  0  0  0  0  0
    1.1295   -1.9874   -0.8330 C   0  0  0  0  0  0  0  0  0  0  0  0
    0.2513   -0.7473   -0.6558 C   0  0  0  0  0  0  0  0  0  0  0  0
    0.4405   -0.0285   -1.4568 H   0  0  0  0  0  0  0  0  0  0  0  0
    0.5305   -0.1023    0.6888 C   0  0  0  0  0  0  0  0  0  0  0  0
   -0.2556   -0.1384    1.6124 O   0  0  0  0  0  0  0  0  0  0  0  0
    1.7108    0.4555    0.7148 O   0  0  0  0  0  0  0  0  0  0  0  0
    2.1526    1.0492    1.9545 C   0  0  0  0  0  0  0  0  0  0  0  0
    2.6827   -0.0125    2.9042 C   0  0  0  0  0  0  0  0  0  0  0  0
   -1.5032   -1.2384   -0.6912 S   0  0  0  0  0  0  0  0  0  0  0  0
   -2.3499    0.6244   -0.0991 P   0  0  0  0  0  0  0  0  0  0  0  0
   -1.2279    2.2269   -0.1576 S   0  0  0  0  0  0  0  0  0  0  0  0
   -3.5257    0.7868   -1.1514 O   0  0  0  0  0  0  0  0  0  0  0  0
   -4.5442   -0.2130   -1.3414 C   0  0  0  0  0  0  0  0  0  0  0  0
   -3.2099    0.3747    1.2232 O   0  0  0  0  0  0  0  0  0  0  0  0
   -2.8112    0.5902    2.5771 C   0  0  0  0  0  0  0  0  0  0  0  0
    5.4969    1.2472   -1.3931 H   0  0  0  0  0  0  0  0  0  0  0  0
    3.7673    1.6321   -1.3497 H   0  0  0  0  0  0  0  0  0  0  0  0
    4.4718    0.5815   -0.1140 H   0  0  0  0  0  0  0  0  0  0  0  0
    4.9130   -1.1725   -1.7816 H   0  0  0  0  0  0  0  0  0  0  0  0
    4.3040   -0.1107   -3.0934 H   0  0  0  0  0  0  0  0  0  0  0  0
    0.9554   -2.6946   -0.0215 H   0  0  0  0  0  0  0  0  0  0  0  0
    0.8832   -2.4575   -1.7857 H   0  0  0  0  0  0  0  0  0  0  0  0
    2.9333    1.7466    1.6514 H   0  0  0  0  0  0  0  0  0  0  0  0
    1.3115    1.5926    2.3938 H   0  0  0  0  0  0  0  0  0  0  0  0
    3.1448    0.4688    3.7593 H   0  0  0  0  0  0  0  0  0  0  0  0
    1.8711   -0.6483    3.2499 H   0  0  0  0  0  0  0  0  0  0  0  0
    3.4179   -0.6327    2.3957 H   0  0  0  0  0  0  0  0  0  0  0  0
   -5.1807   -0.2639   -0.4603 H   0  0  0  0  0  0  0  0  0  0  0  0
   -4.0828   -1.1832   -1.5284 H   0  0  0  0  0  0  0  0  0  0  0  0
   -5.1084    0.1188   -2.2091 H   0  0  0  0  0  0  0  0  0  0  0  0
   -2.1648    1.4655    2.6462 H   0  0  0  0  0  0  0  0  0  0  0  0
   -2.2808   -0.2831    2.9511 H   0  0  0  0  0  0  0  0  0  0  0  0
   -3.7349    0.7534    3.1278 H   0  0  0  0  0  0  0  0  0  0  0  0
  1  2  1  0  0  0  0
  2  3  1  0  0  0  0
  3  4  1  0  0  0  0
  4  5  2  0  0  0  0
  4  6  1  0  0  0  0
  6  7  1  0  0  0  0
  7  8  1  0  0  0  0
  7  9  1  0  0  0  0
  9 10  2  0  0  0  0
  9 11  4  0  0  0  0
 11 12  1  0  0  0  0
 12 13  1  0  0  0  0
  7 14  1  0  0  0  0
 14 15  1  0  0  0  0
 15 16  2  0  0  0  0
 15 17  2  0  0  0  0
 17 18  1  0  0  0  0
 15 19  2  0  0  0  0
 19 20  1  0  0  0  0
  1 21  1  0  0  0  0
  1 22  1  0  0  0  0
  1 23  1  0  0  0  0
  2 24  1  0  0  0  0
  2 25  1  0  0  0  0
  6 26  1  0  0  0  0
  6 27  1  0  0  0  0
 12 28  1  0  0  0  0
 12 29  1  0  0  0  0
 13 30  1  0  0  0  0
 13 31  1  0  0  0  0
 13 32  1  0  0  0  0
 18 33  1  0  0  0  0
 18 34  1  0  0  0  0
 18 35  1  0  0  0  0
 20 36  1  0  0  0  0
 20 37  1  0  0  0  0
 20 38  1  0  0  0  0
M  END
