 xtb: 6.7.1 (edcfbbe)
          04092505213D

 41 40  0     0  0            999 V2000
    1.9926   -1.1232   -2.8065 C   0  0  0  0  0  0  0  0  0  0  0  0
    3.2529   -0.4837   -2.2600 C   0  0  0  0  0  0  0  0  0  0  0  0
    3.4227   -0.7379   -0.8541 O   0  0  0  0  0  0  0  0  0  0  0  0
    2.6146    0.0321    0.2758 P   0  0  0  0  0  0  0  0  0  0  0  0
    2.4153    1.9673    0.0519 S   0  0  0  0  0  0  0  0  0  0  0  0
    3.4667   -0.2817    1.5673 O   0  0  0  0  0  0  0  0  0  0  0  0
    4.1347   -1.5347    1.8685 C   0  0  0  0  0  0  0  0  0  0  0  0
    3.2184   -2.5058    2.5862 C   0  0  0  0  0  0  0  0  0  0  0  0
    0.8027   -1.0583    0.4753 S   0  0  0  0  0  0  0  0  0  0  0  0
   -0.0989    0.2109    1.4302 C   0  0  0  0  0  0  0  0  0  0  0  0
   -1.8677   -0.1080    1.4459 S   0  0  0  0  0  0  0  0  0  0  0  0
   -2.3749    0.5935   -0.5146 P   0  0  0  0  0  0  0  0  0  0  0  0
   -0.9187    1.1639   -1.6860 S   0  0  0  0  0  0  0  0  0  0  0  0
   -3.4046    1.7575   -0.2584 O   0  0  0  0  0  0  0  0  0  0  0  0
   -4.5610    1.6097    0.6088 C   0  0  0  0  0  0  0  0  0  0  0  0
   -4.4117    2.5091    1.8192 C   0  0  0  0  0  0  0  0  0  0  0  0
   -3.3236   -0.5384   -1.1092 O   0  0  0  0  0  0  0  0  0  0  0  0
   -2.8311   -1.6960   -1.8083 C   0  0  0  0  0  0  0  0  0  0  0  0
   -2.3223   -2.7627   -0.8591 C   0  0  0  0  0  0  0  0  0  0  0  0
    1.9347   -2.1638   -2.4985 H   0  0  0  0  0  0  0  0  0  0  0  0
    1.1121   -0.5940   -2.4463 H   0  0  0  0  0  0  0  0  0  0  0  0
    2.0073   -1.0669   -3.8901 H   0  0  0  0  0  0  0  0  0  0  0  0
    3.2413    0.5989   -2.4218 H   0  0  0  0  0  0  0  0  0  0  0  0
    4.1486   -0.9158   -2.7097 H   0  0  0  0  0  0  0  0  0  0  0  0
    4.5185   -1.9596    0.9402 H   0  0  0  0  0  0  0  0  0  0  0  0
    4.9655   -1.2289    2.5068 H   0  0  0  0  0  0  0  0  0  0  0  0
    3.8015   -3.3645    2.9041 H   0  0  0  0  0  0  0  0  0  0  0  0
    2.7808   -2.0315    3.4607 H   0  0  0  0  0  0  0  0  0  0  0  0
    2.4202   -2.8433    1.9302 H   0  0  0  0  0  0  0  0  0  0  0  0
    0.1066    1.1828    0.9753 H   0  0  0  0  0  0  0  0  0  0  0  0
    0.2295    0.1824    2.4665 H   0  0  0  0  0  0  0  0  0  0  0  0
   -5.4151    1.9023   -0.0035 H   0  0  0  0  0  0  0  0  0  0  0  0
   -4.6586    0.5620    0.9008 H   0  0  0  0  0  0  0  0  0  0  0  0
   -3.5708    2.1882    2.4290 H   0  0  0  0  0  0  0  0  0  0  0  0
   -4.2449    3.5347    1.5017 H   0  0  0  0  0  0  0  0  0  0  0  0
   -5.3195    2.4600    2.4118 H   0  0  0  0  0  0  0  0  0  0  0  0
   -3.6972   -2.0448   -2.3731 H   0  0  0  0  0  0  0  0  0  0  0  0
   -2.0444   -1.3758   -2.4989 H   0  0  0  0  0  0  0  0  0  0  0  0
   -3.0714   -2.9797   -0.1024 H   0  0  0  0  0  0  0  0  0  0  0  0
   -2.1101   -3.6650   -1.4232 H   0  0  0  0  0  0  0  0  0  0  0  0
   -1.4078   -2.4356   -0.3670 H   0  0  0  0  0  0  0  0  0  0  0  0
  1  2  1  0  0  0  0
  2  3  1  0  0  0  0
  3  4  2  0  0  0  0
  4  5  2  0  0  0  0
  4  6  2  0  0  0  0
  6  7  1  0  0  0  0
  7  8  1  0  0  0  0
  4  9  1  0  0  0  0
  9 10  1  0  0  0  0
 10 11  1  0  0  0  0
 11 12  1  0  0  0  0
 12 13  2  0  0  0  0
 12 14  2  0  0  0  0
 14 15  1  0  0  0  0
 15 16  1  0  0  0  0
 12 17  2  0  0  0  0
 17 18  1  0  0  0  0
 18 19  1  0  0  0  0
  1 20  1  0  0  0  0
  1 21  1  0  0  0  0
  1 22  1  0  0  0  0
  2 23  1  0  0  0  0
  2 24  1  0  0  0  0
  7 25  1  0  0  0  0
  7 26  1  0  0  0  0
  8 27  1  0  0  0  0
  8 28  1  0  0  0  0
  8 29  1  0  0  0  0
 10 30  1  0  0  0  0
 10 31  1  0  0  0  0
 15 32  1  0  0  0  0
 15 33  1  0  0  0  0
 16 34  1  0  0  0  0
 16 35  1  0  0  0  0
 16 36  1  0  0  0  0
 18 37  1  0  0  0  0
 18 38  1  0  0  0  0
 19 39  1  0  0  0  0
 19 40  1  0  0  0  0
 19 41  1  0  0  0  0
M  END
