 xtb: 6.7.1 (edcfbbe)
          04092505203D

 41 40  0     0  0            999 V2000
    3.3233   -1.8871    2.1872 C   0  0  0  0  0  0  0  0  0  0  0  0
    1.9757   -1.7908    1.5012 C   0  0  0  0  0  0  0  0  0  0  0  0
    1.7626   -0.4658    0.9738 O   0  0  0  0  0  0  0  0  0  0  0  0
    2.3850    0.0042   -0.4225 P   0  0  0  0  0  0  0  0  0  0  0  0
    3.1364   -1.4142   -1.5371 S   0  0  0  0  0  0  0  0  0  0  0  0
    3.4555    1.1158   -0.0695 O   0  0  0  0  0  0  0  0  0  0  0  0
    3.3917    2.0101    1.0675 C   0  0  0  0  0  0  0  0  0  0  0  0
    2.2447    2.9946    0.9747 C   0  0  0  0  0  0  0  0  0  0  0  0
    0.7882    1.0794   -1.3133 S   0  0  0  0  0  0  0  0  0  0  0  0
   -0.0839   -0.3653   -1.9693 C   0  0  0  0  0  0  0  0  0  0  0  0
   -0.9131   -1.3309   -0.6853 S   0  0  0  0  0  0  0  0  0  0  0  0
   -2.2301    0.2351   -0.0495 P   0  0  0  0  0  0  0  0  0  0  0  0
   -2.8498    1.4573   -1.4421 S   0  0  0  0  0  0  0  0  0  0  0  0
   -1.4513    0.9755    1.1058 O   0  0  0  0  0  0  0  0  0  0  0  0
   -1.0983    0.3266    2.3531 C   0  0  0  0  0  0  0  0  0  0  0  0
   -2.0421    0.7591    3.4558 C   0  0  0  0  0  0  0  0  0  0  0  0
   -3.3637   -0.5395    0.7517 O   0  0  0  0  0  0  0  0  0  0  0  0
   -4.5496   -1.0510    0.1167 C   0  0  0  0  0  0  0  0  0  0  0  0
   -4.2468   -2.1659   -0.8630 C   0  0  0  0  0  0  0  0  0  0  0  0
    3.4536   -2.8892    2.5827 H   0  0  0  0  0  0  0  0  0  0  0  0
    4.1158   -1.6871    1.4664 H   0  0  0  0  0  0  0  0  0  0  0  0
    3.3924   -1.1692    3.0002 H   0  0  0  0  0  0  0  0  0  0  0  0
    1.1517   -1.9448    2.1986 H   0  0  0  0  0  0  0  0  0  0  0  0
    1.9069   -2.5128    0.6822 H   0  0  0  0  0  0  0  0  0  0  0  0
    3.3161    1.4086    1.9759 H   0  0  0  0  0  0  0  0  0  0  0  0
    4.3569    2.5176    1.0368 H   0  0  0  0  0  0  0  0  0  0  0  0
    2.3253    3.7119    1.7857 H   0  0  0  0  0  0  0  0  0  0  0  0
    2.2754    3.5238    0.0252 H   0  0  0  0  0  0  0  0  0  0  0  0
    1.2875    2.4815    1.0501 H   0  0  0  0  0  0  0  0  0  0  0  0
    0.6269   -1.0301   -2.4614 H   0  0  0  0  0  0  0  0  0  0  0  0
   -0.8259    0.0169   -2.6697 H   0  0  0  0  0  0  0  0  0  0  0  0
   -1.1266   -0.7565    2.2079 H   0  0  0  0  0  0  0  0  0  0  0  0
   -0.0738    0.6453    2.5554 H   0  0  0  0  0  0  0  0  0  0  0  0
   -3.0535    0.4288    3.2347 H   0  0  0  0  0  0  0  0  0  0  0  0
   -1.7181    0.3206    4.3945 H   0  0  0  0  0  0  0  0  0  0  0  0
   -2.0387    1.8420    3.5437 H   0  0  0  0  0  0  0  0  0  0  0  0
   -5.1583   -1.4037    0.9504 H   0  0  0  0  0  0  0  0  0  0  0  0
   -5.0531   -0.2216   -0.3890 H   0  0  0  0  0  0  0  0  0  0  0  0
   -3.6432   -2.9359   -0.3890 H   0  0  0  0  0  0  0  0  0  0  0  0
   -5.1793   -2.6002   -1.2091 H   0  0  0  0  0  0  0  0  0  0  0  0
   -3.7038   -1.7718   -1.7206 H   0  0  0  0  0  0  0  0  0  0  0  0
  1  2  1  0  0  0  0
  2  3  1  0  0  0  0
  3  4  1  0  0  0  0
  4  5  2  0  0  0  0
  4  6  2  0  0  0  0
  6  7  1  0  0  0  0
  7  8  1  0  0  0  0
  4  9  1  0  0  0  0
  9 10  1  0  0  0  0
 10 11  1  0  0  0  0
 11 12  1  0  0  0  0
 12 13  2  0  0  0  0
 12 14  2  0  0  0  0
 14 15  1  0  0  0  0
 15 16  1  0  0  0  0
 12 17  2  0  0  0  0
 17 18  1  0  0  0  0
 18 19  1  0  0  0  0
  1 20  1  0  0  0  0
  1 21  1  0  0  0  0
  1 22  1  0  0  0  0
  2 23  1  0  0  0  0
  2 24  1  0  0  0  0
  7 25  1  0  0  0  0
  7 26  1  0  0  0  0
  8 27  1  0  0  0  0
  8 28  1  0  0  0  0
  8 29  1  0  0  0  0
 10 30  1  0  0  0  0
 10 31  1  0  0  0  0
 15 32  1  0  0  0  0
 15 33  1  0  0  0  0
 16 34  1  0  0  0  0
 16 35  1  0  0  0  0
 16 36  1  0  0  0  0
 18 37  1  0  0  0  0
 18 38  1  0  0  0  0
 19 39  1  0  0  0  0
 19 40  1  0  0  0  0
 19 41  1  0  0  0  0
M  END
