 xtb: 6.7.1 (edcfbbe)
          04092505203D

 41 40  0     0  0            999 V2000
    4.3643   -1.3811   -2.1215 C   0  0  0  0  0  0  0  0  0  0  0  0
    4.9117   -0.8885   -0.7972 C   0  0  0  0  0  0  0  0  0  0  0  0
    3.9087   -0.8598    0.2319 O   0  0  0  0  0  0  0  0  0  0  0  0
    2.6755    0.1407    0.1973 P   0  0  0  0  0  0  0  0  0  0  0  0
    3.0866    1.9406   -0.4566 S   0  0  0  0  0  0  0  0  0  0  0  0
    2.2064    0.1884    1.6994 O   0  0  0  0  0  0  0  0  0  0  0  0
    1.5077   -0.8444    2.4373 C   0  0  0  0  0  0  0  0  0  0  0  0
    2.1942   -2.1905    2.3668 C   0  0  0  0  0  0  0  0  0  0  0  0
    1.1602   -0.9053   -0.8820 S   0  0  0  0  0  0  0  0  0  0  0  0
    0.0949    0.5257   -1.1598 C   0  0  0  0  0  0  0  0  0  0  0  0
   -0.9102    0.9484    0.2872 S   0  0  0  0  0  0  0  0  0  0  0  0
   -2.8493    0.3720   -0.4275 P   0  0  0  0  0  0  0  0  0  0  0  0
   -2.9463   -0.1488   -2.3115 S   0  0  0  0  0  0  0  0  0  0  0  0
   -3.7612    1.6194   -0.1233 O   0  0  0  0  0  0  0  0  0  0  0  0
   -3.6771    2.5002    1.0223 C   0  0  0  0  0  0  0  0  0  0  0  0
   -3.7014    1.7543    2.3382 C   0  0  0  0  0  0  0  0  0  0  0  0
   -3.4164   -0.7194    0.5820 O   0  0  0  0  0  0  0  0  0  0  0  0
   -3.2357   -2.1317    0.3879 C   0  0  0  0  0  0  0  0  0  0  0  0
   -1.8478   -2.5865    0.7918 C   0  0  0  0  0  0  0  0  0  0  0  0
    3.8496   -2.3296   -1.9910 H   0  0  0  0  0  0  0  0  0  0  0  0
    3.6644   -0.6539   -2.5305 H   0  0  0  0  0  0  0  0  0  0  0  0
    5.1832   -1.5089   -2.8222 H   0  0  0  0  0  0  0  0  0  0  0  0
    5.3277    0.1184   -0.9044 H   0  0  0  0  0  0  0  0  0  0  0  0
    5.6715   -1.5631   -0.4002 H   0  0  0  0  0  0  0  0  0  0  0  0
    1.4900   -0.4497    3.4542 H   0  0  0  0  0  0  0  0  0  0  0  0
    0.4883   -0.9012    2.0477 H   0  0  0  0  0  0  0  0  0  0  0  0
    1.6722   -2.8883    3.0143 H   0  0  0  0  0  0  0  0  0  0  0  0
    2.1756   -2.5709    1.3474 H   0  0  0  0  0  0  0  0  0  0  0  0
    3.2279   -2.1032    2.6904 H   0  0  0  0  0  0  0  0  0  0  0  0
   -0.5706    0.2855   -1.9930 H   0  0  0  0  0  0  0  0  0  0  0  0
    0.7253    1.3866   -1.3886 H   0  0  0  0  0  0  0  0  0  0  0  0
   -2.7643    3.0946    0.9281 H   0  0  0  0  0  0  0  0  0  0  0  0
   -4.5500    3.1439    0.9046 H   0  0  0  0  0  0  0  0  0  0  0  0
   -4.5770    1.1130    2.3919 H   0  0  0  0  0  0  0  0  0  0  0  0
   -2.8066    1.1422    2.4360 H   0  0  0  0  0  0  0  0  0  0  0  0
   -3.7284    2.4721    3.1522 H   0  0  0  0  0  0  0  0  0  0  0  0
   -4.0035   -2.5830    1.0182 H   0  0  0  0  0  0  0  0  0  0  0  0
   -3.4327   -2.3691   -0.6627 H   0  0  0  0  0  0  0  0  0  0  0  0
   -1.6300   -2.2680    1.8079 H   0  0  0  0  0  0  0  0  0  0  0  0
   -1.7976   -3.6691    0.7385 H   0  0  0  0  0  0  0  0  0  0  0  0
   -1.1019   -2.1728    0.1145 H   0  0  0  0  0  0  0  0  0  0  0  0
  1  2  1  0  0  0  0
  2  3  1  0  0  0  0
  3  4  2  0  0  0  0
  4  5  2  0  0  0  0
  4  6  2  0  0  0  0
  6  7  1  0  0  0  0
  7  8  1  0  0  0  0
  4  9  1  0  0  0  0
  9 10  1  0  0  0  0
 10 11  1  0  0  0  0
 11 12  1  0  0  0  0
 12 13  2  0  0  0  0
 12 14  2  0  0  0  0
 14 15  1  0  0  0  0
 15 16  1  0  0  0  0
 12 17  2  0  0  0  0
 17 18  1  0  0  0  0
 18 19  1  0  0  0  0
  1 20  1  0  0  0  0
  1 21  1  0  0  0  0
  1 22  1  0  0  0  0
  2 23  1  0  0  0  0
  2 24  1  0  0  0  0
  7 25  1  0  0  0  0
  7 26  1  0  0  0  0
  8 27  1  0  0  0  0
  8 28  1  0  0  0  0
  8 29  1  0  0  0  0
 10 30  1  0  0  0  0
 10 31  1  0  0  0  0
 15 32  1  0  0  0  0
 15 33  1  0  0  0  0
 16 34  1  0  0  0  0
 16 35  1  0  0  0  0
 16 36  1  0  0  0  0
 18 37  1  0  0  0  0
 18 38  1  0  0  0  0
 19 39  1  0  0  0  0
 19 40  1  0  0  0  0
 19 41  1  0  0  0  0
M  END
