 xtb: 6.7.1 (edcfbbe)
          04092505213D

 41 40  0     0  0            999 V2000
    5.1923    1.2791    0.0282 C   0  0  0  0  0  0  0  0  0  0  0  0
    4.1222    0.9183   -0.9843 C   0  0  0  0  0  0  0  0  0  0  0  0
    3.2664   -0.1248   -0.4856 O   0  0  0  0  0  0  0  0  0  0  0  0
    1.8953    0.1987    0.2733 P   0  0  0  0  0  0  0  0  0  0  0  0
    2.0371    1.3252    1.8687 S   0  0  0  0  0  0  0  0  0  0  0  0
    1.3670   -1.2785    0.4739 O   0  0  0  0  0  0  0  0  0  0  0  0
    1.4841   -1.9638    1.7329 C   0  0  0  0  0  0  0  0  0  0  0  0
    2.9143   -2.3865    1.9918 C   0  0  0  0  0  0  0  0  0  0  0  0
    0.6707    0.9583   -1.2793 S   0  0  0  0  0  0  0  0  0  0  0  0
    0.2531   -0.5756   -2.1310 C   0  0  0  0  0  0  0  0  0  0  0  0
   -0.9665   -1.6598   -1.2786 S   0  0  0  0  0  0  0  0  0  0  0  0
   -2.1188   -0.3366   -0.1255 P   0  0  0  0  0  0  0  0  0  0  0  0
   -3.7507   -1.1344    0.6048 S   0  0  0  0  0  0  0  0  0  0  0  0
   -2.3467    0.9815   -0.9908 O   0  0  0  0  0  0  0  0  0  0  0  0
   -3.4954    1.1464   -1.8400 C   0  0  0  0  0  0  0  0  0  0  0  0
   -3.3166    0.4383   -3.1682 C   0  0  0  0  0  0  0  0  0  0  0  0
   -1.0607    0.1452    0.9674 O   0  0  0  0  0  0  0  0  0  0  0  0
   -1.5066    0.7203    2.2149 C   0  0  0  0  0  0  0  0  0  0  0  0
   -2.1490    2.0762    2.0187 C   0  0  0  0  0  0  0  0  0  0  0  0
    4.7383    1.6812    0.9314 H   0  0  0  0  0  0  0  0  0  0  0  0
    5.7712    0.3977    0.2896 H   0  0  0  0  0  0  0  0  0  0  0  0
    5.8514    2.0279   -0.3990 H   0  0  0  0  0  0  0  0  0  0  0  0
    4.5631    0.5043   -1.8932 H   0  0  0  0  0  0  0  0  0  0  0  0
    3.5128    1.7921   -1.2394 H   0  0  0  0  0  0  0  0  0  0  0  0
    1.1234   -1.3043    2.5290 H   0  0  0  0  0  0  0  0  0  0  0  0
    0.8134   -2.8192    1.6322 H   0  0  0  0  0  0  0  0  0  0  0  0
    3.2833   -2.9865    1.1645 H   0  0  0  0  0  0  0  0  0  0  0  0
    3.5421   -1.5023    2.0957 H   0  0  0  0  0  0  0  0  0  0  0  0
    2.9596   -2.9643    2.9095 H   0  0  0  0  0  0  0  0  0  0  0  0
    1.1424   -1.1894   -2.2555 H   0  0  0  0  0  0  0  0  0  0  0  0
   -0.1618   -0.2809   -3.0916 H   0  0  0  0  0  0  0  0  0  0  0  0
   -4.3759    0.7646   -1.3119 H   0  0  0  0  0  0  0  0  0  0  0  0
   -3.5780    2.2264   -1.9687 H   0  0  0  0  0  0  0  0  0  0  0  0
   -4.1863    0.6246   -3.7902 H   0  0  0  0  0  0  0  0  0  0  0  0
   -2.4298    0.8092   -3.6752 H   0  0  0  0  0  0  0  0  0  0  0  0
   -3.2206   -0.6353   -3.0106 H   0  0  0  0  0  0  0  0  0  0  0  0
   -2.2044    0.0194    2.6841 H   0  0  0  0  0  0  0  0  0  0  0  0
   -0.5948    0.7971    2.8106 H   0  0  0  0  0  0  0  0  0  0  0  0
   -1.4780    2.7294    1.4656 H   0  0  0  0  0  0  0  0  0  0  0  0
   -3.0824    1.9717    1.4678 H   0  0  0  0  0  0  0  0  0  0  0  0
   -2.3568    2.5137    2.9902 H   0  0  0  0  0  0  0  0  0  0  0  0
  1  2  1  0  0  0  0
  2  3  1  0  0  0  0
  3  4  1  0  0  0  0
  4  5  2  0  0  0  0
  4  6  2  0  0  0  0
  6  7  1  0  0  0  0
  7  8  1  0  0  0  0
  4  9  1  0  0  0  0
  9 10  1  0  0  0  0
 10 11  1  0  0  0  0
 11 12  1  0  0  0  0
 12 13  2  0  0  0  0
 12 14  2  0  0  0  0
 14 15  1  0  0  0  0
 15 16  1  0  0  0  0
 12 17  1  0  0  0  0
 17 18  1  0  0  0  0
 18 19  1  0  0  0  0
  1 20  1  0  0  0  0
  1 21  1  0  0  0  0
  1 22  1  0  0  0  0
  2 23  1  0  0  0  0
  2 24  1  0  0  0  0
  7 25  1  0  0  0  0
  7 26  1  0  0  0  0
  8 27  1  0  0  0  0
  8 28  1  0  0  0  0
  8 29  1  0  0  0  0
 10 30  1  0  0  0  0
 10 31  1  0  0  0  0
 15 32  1  0  0  0  0
 15 33  1  0  0  0  0
 16 34  1  0  0  0  0
 16 35  1  0  0  0  0
 16 36  1  0  0  0  0
 18 37  1  0  0  0  0
 18 38  1  0  0  0  0
 19 39  1  0  0  0  0
 19 40  1  0  0  0  0
 19 41  1  0  0  0  0
M  END
