  29
 
 C         -5.0594157481       -0.3846032120       -0.0053505996
 C         -3.8029899558        0.4783299996        0.0075119716
 C         -2.5324002591       -0.3687435845        0.0060355180
 C         -1.2672799122        0.4862103077        0.0025920362
 C         -0.0003235583       -0.3661281131        0.0009898018
 C          1.2674161537        0.4849405550       -0.0001813910
 C          2.5322527426       -0.3705417943       -0.0004248354
 C          3.8021447959        0.4776356164       -0.0004979567
 C          5.0600465428       -0.3832173649       -0.0002511544
 H         -5.9513240890        0.2370735921       -0.0025231200
 H         -5.0799172148       -1.0123480960       -0.8933807714
 H         -5.0864151646       -1.0298110865        0.8699186949
 H         -3.8013487302        1.1305469960       -0.8687500877
 H         -3.8093143372        1.1163982308        0.8940664764
 H         -2.5290132669       -1.0138287801        0.8878579838
 H         -2.5324214183       -1.0150594072       -0.8749138904
 H         -1.2660965249        1.1333025912        0.8829846996
 H         -1.2697540452        1.1308303472       -0.8796013544
 H          0.0002109060       -1.0120825459        0.8821582474
 H         -0.0017228664       -1.0116583937       -0.8804886751
 H          1.2680107640        1.1304141395       -0.8817708189
 H          1.2690020827        1.1311960148        0.8808382660
 H          2.5305593524       -1.0162017804       -0.8818476768
 H          2.5307577180       -1.0161866037        0.8810146679
 H          3.8037078721        1.1226706196       -0.8820604617
 H          3.8035716203        1.1228844923        0.8809100231
 H          5.9505313528        0.2405506452       -0.0001083157
 H          5.0855121544       -1.0196858130       -0.8819442934
 H          5.0851763253       -1.0195906564        0.8815261659
          29
        -29.48785575
 C         -5.0609697633       -0.3777612454       -0.0010496776
 C         -3.8012895346        0.4802514352        0.0003759663
 C         -2.5334652942       -0.3710019563       -0.0018030567
 C         -1.2668270974        0.4816153721        0.0008833926
 C         -0.0001586366       -0.3711378424        0.0013540133
 C          1.2667435490        0.4812512853        0.0012637951
 C          2.5333730359       -0.3713686652        0.0028057956
 C          3.8011413416        0.4799351278       -0.0024516063
 C          5.0614125998       -0.3772917117       -0.0012128700
 H         -5.0883898341       -1.0117922622       -0.8844393137
 H         -5.0867790139       -1.0166399764        0.8790538445
 H         -5.9503699888        0.2479326077        0.0017892663
 H         -3.8016006686        1.1274373546       -0.8795973055
 H         -3.8010471797        1.1234760975        0.8832725332
 H         -2.5336385987       -1.0191810661        0.8778389991
 H         -2.5332187931       -1.0142672408       -0.8850323871
 H         -1.2677454829        1.1264167162        0.8829986637
 H         -1.2655475246        1.1287229127       -0.8795445739
 H         -0.0004650062       -1.0166646543        0.8828383069
 H         -0.0000985644       -1.0170997019       -0.8798075840
 H          1.2672314092        1.1262167830       -0.8807147531
 H          1.2662864239        1.1282029717        0.8817815389
 H          2.5321397792       -1.0204629441       -0.8760991013
 H          2.5346765567       -1.0136355729        0.8867028303
 H          3.7995160351        1.1216275957       -0.8865346878
 H          3.8022864825        1.1288011968        0.8763678571
 H          5.9502608044        0.2487932084       -0.0039395170
 H          5.0875702672       -1.0161232376       -0.8811484011
 H          5.0894071870       -1.0111317582        0.8822385398
