27
 xtb: 6.7.1 (edcfbbe)
C            2.96012695693025       -1.94174245441322        0.27553394211624
C            1.70946029976565       -1.16069645961139        0.10247663150307
C            1.55645891736713        0.18394649047540        0.21282931640180
C            0.28015474354849        0.83396867845052       -0.01639415039787
O            0.16578463391324        2.05050077358847       -0.14597221314603
N           -0.83903193507147       -0.03286812151018       -0.07043764755304
C           -0.66816777391407       -1.36370376279696       -0.44301324417721
O           -1.54018125293277       -2.07689357549412       -0.93322004972266
N            0.59327488576958       -1.88092691595588       -0.22551831132255
C           -2.25625749256776        0.53746367758020        0.05180622814780
C           -3.20483320413016       -0.53293388873859        0.62051459340397
C           -2.26899144149657        1.69377782540116        1.06742867978233
C           -2.72851182317747        1.00693541791363       -1.32178686601535
Cl           2.90687664154449        1.23088207176286        0.55269596442736
H            3.83703686376775       -1.29781162381739        0.30391655065710
H            3.06741213308410       -2.66343685367411       -0.54019915427756
H            2.90753296105883       -2.50626906727909        1.21389634682042
H            0.70130371530007       -2.85764945946427       -0.47206831974643
H           -2.77008844561481       -1.02108758481394        1.49894327024652
H           -4.11649599204634       -0.02165835704577        0.93842765777056
H           -3.48049660974543       -1.29186827952260       -0.10665131451363
H           -1.83525861312784        2.61180883954966        0.68037218402583
H           -1.74912634607740        1.41502956873221        1.98988709455198
H           -3.31348050930583        1.89210706479537        1.31960698071874
H           -2.73770210105602        0.17776257820463       -2.03497906581027
H           -3.74692537495275        1.39882209666826       -1.23576931663203
H           -2.08450994921203        1.80141341869978       -1.70850471359998
