19
 xtb: 6.7.1 (edcfbbe)
C            1.91208319958111       -0.00003497083413        0.71502823913131
N            1.12701165047924        0.00002750278930       -0.52679324874202
C            0.26815454704392        1.19937799105634       -0.61956629674170
C           -0.91905676932474        1.19927339054761        0.33562482751078
N           -1.74570448896655        0.00001793739362        0.09566085054210
C           -0.91908546646668       -1.19928270164937        0.33549978953960
C            0.26814487598371       -1.19930906583970       -0.61967238972862
H            1.31972834913678       -0.00017772786092        1.64274772145954
H            2.55649231343928        0.88530863239340        0.73406285554505
H            2.55664022331908       -0.88527531087260        0.73388554443276
H            0.88616601308230        2.08628532713444       -0.44074146106374
H           -0.11071467111069        1.26359397131600       -1.64839586732780
H           -0.56318907609477        1.25121429216857        1.37906404542856
H           -1.52073265494413        2.09659316363482        0.15375131558348
H           -2.49083942843192       -0.00001145921373        0.78556148828949
H           -0.56324295777950       -1.25135523497599        1.37894084893351
H           -1.52077864659973       -2.09656776413078        0.15350669959530
H            0.88614616623046       -2.08623424304364       -0.44089965904586
H           -0.11070411224092       -1.26344903994916       -1.64851373339801
