 xtb: 6.7.1 (edcfbbe)
          04092505213D

 41 40  0     0  0            999 V2000
    2.1765    2.2510   -2.6229 C   0  0  0  0  0  0  0  0  0  0  0  0
    2.5688    1.8462   -1.2178 C   0  0  0  0  0  0  0  0  0  0  0  0
    1.8813    0.6109   -0.9074 O   0  0  0  0  0  0  0  0  0  0  0  0
    2.0662   -0.0836    0.5025 P   0  0  0  0  0  0  0  0  0  0  0  0
    1.5887    1.0781    2.0179 S   0  0  0  0  0  0  0  0  0  0  0  0
    3.5991   -0.5064    0.4097 O   0  0  0  0  0  0  0  0  0  0  0  0
    4.2451   -1.5190    1.2048 C   0  0  0  0  0  0  0  0  0  0  0  0
    3.9827   -1.3690    2.6884 C   0  0  0  0  0  0  0  0  0  0  0  0
    1.0034   -1.8834    0.2707 S   0  0  0  0  0  0  0  0  0  0  0  0
   -0.3199   -1.6278    1.4990 C   0  0  0  0  0  0  0  0  0  0  0  0
   -1.9914   -1.6482    0.8032 S   0  0  0  0  0  0  0  0  0  0  0  0
   -1.9986    0.0559   -0.4416 P   0  0  0  0  0  0  0  0  0  0  0  0
   -1.0477    0.0656   -2.1609 S   0  0  0  0  0  0  0  0  0  0  0  0
   -1.5326    1.1395    0.6174 O   0  0  0  0  0  0  0  0  0  0  0  0
   -1.1196    2.4614    0.2250 C   0  0  0  0  0  0  0  0  0  0  0  0
   -2.2866    3.3056   -0.2382 C   0  0  0  0  0  0  0  0  0  0  0  0
   -3.5546    0.3524   -0.5870 O   0  0  0  0  0  0  0  0  0  0  0  0
   -4.3406   -0.1944   -1.6580 C   0  0  0  0  0  0  0  0  0  0  0  0
   -4.5089   -1.6939   -1.5226 C   0  0  0  0  0  0  0  0  0  0  0  0
    1.0956    2.3380   -2.7014 H   0  0  0  0  0  0  0  0  0  0  0  0
    2.6356    3.2044   -2.8625 H   0  0  0  0  0  0  0  0  0  0  0  0
    2.5067    1.4974   -3.3317 H   0  0  0  0  0  0  0  0  0  0  0  0
    2.2724    2.5983   -0.4783 H   0  0  0  0  0  0  0  0  0  0  0  0
    3.6444    1.6702   -1.1365 H   0  0  0  0  0  0  0  0  0  0  0  0
    3.9040   -2.4943    0.8470 H   0  0  0  0  0  0  0  0  0  0  0  0
    5.3034   -1.3890    0.9716 H   0  0  0  0  0  0  0  0  0  0  0  0
    4.2592   -0.3729    3.0262 H   0  0  0  0  0  0  0  0  0  0  0  0
    2.9258   -1.5238    2.9019 H   0  0  0  0  0  0  0  0  0  0  0  0
    4.5647   -2.1069    3.2310 H   0  0  0  0  0  0  0  0  0  0  0  0
   -0.1396   -0.6817    2.0179 H   0  0  0  0  0  0  0  0  0  0  0  0
   -0.2982   -2.4681    2.1890 H   0  0  0  0  0  0  0  0  0  0  0  0
   -0.6497    2.8660    1.1238 H   0  0  0  0  0  0  0  0  0  0  0  0
   -0.3710    2.3653   -0.5690 H   0  0  0  0  0  0  0  0  0  0  0  0
   -1.9469    4.3227   -0.4067 H   0  0  0  0  0  0  0  0  0  0  0  0
   -2.6888    2.9050   -1.1675 H   0  0  0  0  0  0  0  0  0  0  0  0
   -3.0695    3.3036    0.5154 H   0  0  0  0  0  0  0  0  0  0  0  0
   -5.2941    0.3292   -1.5792 H   0  0  0  0  0  0  0  0  0  0  0  0
   -3.8538    0.0538   -2.6072 H   0  0  0  0  0  0  0  0  0  0  0  0
   -4.9047   -1.9425   -0.5412 H   0  0  0  0  0  0  0  0  0  0  0  0
   -5.1873   -2.0529   -2.2897 H   0  0  0  0  0  0  0  0  0  0  0  0
   -3.5442   -2.1865   -1.6440 H   0  0  0  0  0  0  0  0  0  0  0  0
  1  2  1  0  0  0  0
  2  3  1  0  0  0  0
  3  4  2  0  0  0  0
  4  5  2  0  0  0  0
  4  6  2  0  0  0  0
  6  7  1  0  0  0  0
  7  8  1  0  0  0  0
  4  9  1  0  0  0  0
  9 10  1  0  0  0  0
 10 11  1  0  0  0  0
 11 12  1  0  0  0  0
 12 13  2  0  0  0  0
 12 14  2  0  0  0  0
 14 15  1  0  0  0  0
 15 16  1  0  0  0  0
 12 17  2  0  0  0  0
 17 18  1  0  0  0  0
 18 19  1  0  0  0  0
  1 20  1  0  0  0  0
  1 21  1  0  0  0  0
  1 22  1  0  0  0  0
  2 23  1  0  0  0  0
  2 24  1  0  0  0  0
  7 25  1  0  0  0  0
  7 26  1  0  0  0  0
  8 27  1  0  0  0  0
  8 28  1  0  0  0  0
  8 29  1  0  0  0  0
 10 30  1  0  0  0  0
 10 31  1  0  0  0  0
 15 32  1  0  0  0  0
 15 33  1  0  0  0  0
 16 34  1  0  0  0  0
 16 35  1  0  0  0  0
 16 36  1  0  0  0  0
 18 37  1  0  0  0  0
 18 38  1  0  0  0  0
 19 39  1  0  0  0  0
 19 40  1  0  0  0  0
 19 41  1  0  0  0  0
M  END
