 xtb: 6.7.1 (edcfbbe)
          04092505213D

 41 40  0     0  0            999 V2000
    3.4095   -2.1308    1.8900 C   0  0  0  0  0  0  0  0  0  0  0  0
    2.0099   -2.0508    1.3155 C   0  0  0  0  0  0  0  0  0  0  0  0
    1.6633   -0.6949    0.9737 O   0  0  0  0  0  0  0  0  0  0  0  0
    2.3070    0.0378   -0.2956 P   0  0  0  0  0  0  0  0  0  0  0  0
    2.9045   -1.1332   -1.7386 S   0  0  0  0  0  0  0  0  0  0  0  0
    3.4821    0.9497    0.2461 O   0  0  0  0  0  0  0  0  0  0  0  0
    3.3094    1.8764    1.3480 C   0  0  0  0  0  0  0  0  0  0  0  0
    4.6759    2.4242    1.7024 C   0  0  0  0  0  0  0  0  0  0  0  0
    0.7584    1.4154   -0.7462 S   0  0  0  0  0  0  0  0  0  0  0  0
   -0.1792    0.2824   -1.8037 C   0  0  0  0  0  0  0  0  0  0  0  0
   -0.9951   -1.0387   -0.8821 S   0  0  0  0  0  0  0  0  0  0  0  0
   -2.5869    0.1758   -0.1323 P   0  0  0  0  0  0  0  0  0  0  0  0
   -3.3476    1.4509   -1.4025 S   0  0  0  0  0  0  0  0  0  0  0  0
   -2.0065    0.8961    1.1422 O   0  0  0  0  0  0  0  0  0  0  0  0
   -1.4652    0.1814    2.2821 C   0  0  0  0  0  0  0  0  0  0  0  0
   -0.5366    1.1257    3.0159 C   0  0  0  0  0  0  0  0  0  0  0  0
   -3.5910   -0.8750    0.5116 O   0  0  0  0  0  0  0  0  0  0  0  0
   -4.6426   -1.5134   -0.2368 C   0  0  0  0  0  0  0  0  0  0  0  0
   -4.1081   -2.4143   -1.3308 C   0  0  0  0  0  0  0  0  0  0  0  0
    4.1298   -1.7956    1.1437 H   0  0  0  0  0  0  0  0  0  0  0  0
    3.4962   -1.5036    2.7733 H   0  0  0  0  0  0  0  0  0  0  0  0
    3.6323   -3.1592    2.1563 H   0  0  0  0  0  0  0  0  0  0  0  0
    1.2532   -2.3477    2.0430 H   0  0  0  0  0  0  0  0  0  0  0  0
    1.9234   -2.6700    0.4174 H   0  0  0  0  0  0  0  0  0  0  0  0
    2.6309    2.6692    1.0214 H   0  0  0  0  0  0  0  0  0  0  0  0
    2.8622    1.3390    2.1879 H   0  0  0  0  0  0  0  0  0  0  0  0
    5.3365    1.6172    2.0060 H   0  0  0  0  0  0  0  0  0  0  0  0
    5.1102    2.9246    0.8418 H   0  0  0  0  0  0  0  0  0  0  0  0
    4.5744    3.1335    2.5174 H   0  0  0  0  0  0  0  0  0  0  0  0
    0.5012   -0.1940   -2.5101 H   0  0  0  0  0  0  0  0  0  0  0  0
   -0.9335    0.8809   -2.3164 H   0  0  0  0  0  0  0  0  0  0  0  0
   -2.3043   -0.1319    2.9057 H   0  0  0  0  0  0  0  0  0  0  0  0
   -0.9333   -0.7030    1.9187 H   0  0  0  0  0  0  0  0  0  0  0  0
   -1.0762    2.0200    3.3137 H   0  0  0  0  0  0  0  0  0  0  0  0
   -0.1435    0.6289    3.8968 H   0  0  0  0  0  0  0  0  0  0  0  0
    0.2844    1.4162    2.3651 H   0  0  0  0  0  0  0  0  0  0  0  0
   -5.1899   -2.0780    0.5193 H   0  0  0  0  0  0  0  0  0  0  0  0
   -5.2847   -0.7349   -0.6594 H   0  0  0  0  0  0  0  0  0  0  0  0
   -3.6276   -1.8170   -2.1044 H   0  0  0  0  0  0  0  0  0  0  0  0
   -3.3811   -3.1141   -0.9260 H   0  0  0  0  0  0  0  0  0  0  0  0
   -4.9311   -2.9652   -1.7746 H   0  0  0  0  0  0  0  0  0  0  0  0
  1  2  1  0  0  0  0
  2  3  1  0  0  0  0
  3  4  1  0  0  0  0
  4  5  2  0  0  0  0
  4  6  2  0  0  0  0
  6  7  1  0  0  0  0
  7  8  1  0  0  0  0
  4  9  1  0  0  0  0
  9 10  1  0  0  0  0
 10 11  1  0  0  0  0
 11 12  1  0  0  0  0
 12 13  2  0  0  0  0
 12 14  2  0  0  0  0
 14 15  1  0  0  0  0
 15 16  1  0  0  0  0
 12 17  2  0  0  0  0
 17 18  1  0  0  0  0
 18 19  1  0  0  0  0
  1 20  1  0  0  0  0
  1 21  1  0  0  0  0
  1 22  1  0  0  0  0
  2 23  1  0  0  0  0
  2 24  1  0  0  0  0
  7 25  1  0  0  0  0
  7 26  1  0  0  0  0
  8 27  1  0  0  0  0
  8 28  1  0  0  0  0
  8 29  1  0  0  0  0
 10 30  1  0  0  0  0
 10 31  1  0  0  0  0
 15 32  1  0  0  0  0
 15 33  1  0  0  0  0
 16 34  1  0  0  0  0
 16 35  1  0  0  0  0
 16 36  1  0  0  0  0
 18 37  1  0  0  0  0
 18 38  1  0  0  0  0
 19 39  1  0  0  0  0
 19 40  1  0  0  0  0
 19 41  1  0  0  0  0
M  END
