 xtb: 6.7.1 (edcfbbe)
          04092505213D

 41 40  0     0  0            999 V2000
    2.7052   -0.8719   -2.7694 C   0  0  0  0  0  0  0  0  0  0  0  0
    1.6386    0.0191   -2.1708 C   0  0  0  0  0  0  0  0  0  0  0  0
    1.1000   -0.5362   -0.9552 O   0  0  0  0  0  0  0  0  0  0  0  0
    1.9712   -0.6096    0.3771 P   0  0  0  0  0  0  0  0  0  0  0  0
    3.3211    0.7936    0.6305 S   0  0  0  0  0  0  0  0  0  0  0  0
    2.5494   -2.0857    0.2783 O   0  0  0  0  0  0  0  0  0  0  0  0
    3.6548   -2.5386    1.0807 C   0  0  0  0  0  0  0  0  0  0  0  0
    3.2840   -2.6568    2.5449 C   0  0  0  0  0  0  0  0  0  0  0  0
    0.4355   -0.8042    1.8042 S   0  0  0  0  0  0  0  0  0  0  0  0
    0.0004    0.9517    2.0031 C   0  0  0  0  0  0  0  0  0  0  0  0
   -0.0892    1.8815    0.4454 S   0  0  0  0  0  0  0  0  0  0  0  0
   -1.8145    1.0303   -0.4314 P   0  0  0  0  0  0  0  0  0  0  0  0
   -1.9062    1.2987   -2.3696 S   0  0  0  0  0  0  0  0  0  0  0  0
   -2.8714    1.7500    0.5114 O   0  0  0  0  0  0  0  0  0  0  0  0
   -4.2448    1.3257    0.6523 C   0  0  0  0  0  0  0  0  0  0  0  0
   -5.0550    1.5799   -0.6022 C   0  0  0  0  0  0  0  0  0  0  0  0
   -1.9529   -0.4817    0.0386 O   0  0  0  0  0  0  0  0  0  0  0  0
   -1.8011   -1.6310   -0.8094 C   0  0  0  0  0  0  0  0  0  0  0  0
   -3.0697   -2.4577   -0.7406 C   0  0  0  0  0  0  0  0  0  0  0  0
    3.5710   -0.9055   -2.1090 H   0  0  0  0  0  0  0  0  0  0  0  0
    2.3209   -1.8796   -2.9022 H   0  0  0  0  0  0  0  0  0  0  0  0
    3.0086   -0.4688   -3.7305 H   0  0  0  0  0  0  0  0  0  0  0  0
    0.7722    0.1203   -2.8280 H   0  0  0  0  0  0  0  0  0  0  0  0
    2.0384    1.0147   -1.9482 H   0  0  0  0  0  0  0  0  0  0  0  0
    3.9116   -3.5068    0.6489 H   0  0  0  0  0  0  0  0  0  0  0  0
    4.4859   -1.8382    0.9505 H   0  0  0  0  0  0  0  0  0  0  0  0
    3.0926   -1.6685    2.9605 H   0  0  0  0  0  0  0  0  0  0  0  0
    2.3903   -3.2646    2.6611 H   0  0  0  0  0  0  0  0  0  0  0  0
    4.1056   -3.1136    3.0873 H   0  0  0  0  0  0  0  0  0  0  0  0
    0.7746    1.4491    2.5848 H   0  0  0  0  0  0  0  0  0  0  0  0
   -0.9588    0.9813    2.5137 H   0  0  0  0  0  0  0  0  0  0  0  0
   -4.2548    0.2660    0.9181 H   0  0  0  0  0  0  0  0  0  0  0  0
   -4.6108    1.9227    1.4894 H   0  0  0  0  0  0  0  0  0  0  0  0
   -4.9998    2.6294   -0.8806 H   0  0  0  0  0  0  0  0  0  0  0  0
   -4.6693    0.9872   -1.4302 H   0  0  0  0  0  0  0  0  0  0  0  0
   -6.0910    1.3097   -0.4229 H   0  0  0  0  0  0  0  0  0  0  0  0
   -1.6024   -1.2934   -1.8319 H   0  0  0  0  0  0  0  0  0  0  0  0
   -0.9388   -2.1878   -0.4351 H   0  0  0  0  0  0  0  0  0  0  0  0
   -2.9369   -3.3583   -1.3310 H   0  0  0  0  0  0  0  0  0  0  0  0
   -3.2798   -2.7316    0.2894 H   0  0  0  0  0  0  0  0  0  0  0  0
   -3.9085   -1.8923   -1.1397 H   0  0  0  0  0  0  0  0  0  0  0  0
  1  2  1  0  0  0  0
  2  3  1  0  0  0  0
  3  4  1  0  0  0  0
  4  5  2  0  0  0  0
  4  6  2  0  0  0  0
  6  7  1  0  0  0  0
  7  8  1  0  0  0  0
  4  9  1  0  0  0  0
  9 10  1  0  0  0  0
 10 11  1  0  0  0  0
 11 12  1  0  0  0  0
 12 13  2  0  0  0  0
 12 14  2  0  0  0  0
 14 15  1  0  0  0  0
 15 16  1  0  0  0  0
 12 17  2  0  0  0  0
 17 18  1  0  0  0  0
 18 19  1  0  0  0  0
  1 20  1  0  0  0  0
  1 21  1  0  0  0  0
  1 22  1  0  0  0  0
  2 23  1  0  0  0  0
  2 24  1  0  0  0  0
  7 25  1  0  0  0  0
  7 26  1  0  0  0  0
  8 27  1  0  0  0  0
  8 28  1  0  0  0  0
  8 29  1  0  0  0  0
 10 30  1  0  0  0  0
 10 31  1  0  0  0  0
 15 32  1  0  0  0  0
 15 33  1  0  0  0  0
 16 34  1  0  0  0  0
 16 35  1  0  0  0  0
 16 36  1  0  0  0  0
 18 37  1  0  0  0  0
 18 38  1  0  0  0  0
 19 39  1  0  0  0  0
 19 40  1  0  0  0  0
 19 41  1  0  0  0  0
M  END
