21
 xtb: 6.7.1 (edcfbbe)
C           -2.52547729087573        0.78569184645757       -0.00012986246315
C           -1.22143104471378        0.03247890371795       -0.00007987764457
C           -1.24305725575764       -1.36671767559328        0.00000353996150
C           -0.06372982225404       -2.10246755376761        0.00009662257934
C            1.15901571126316       -1.43961761153424        0.00006320471968
C            1.21338308134822       -0.04378559738169       -0.00003812563673
C            0.01720894969525        0.70208691684417       -0.00008823018457
C            0.09813928300504        2.20401183703962        0.00018413417535
C            2.54416779387309        0.65434892733264       -0.00014173274754
H           -2.62135158437340        1.43020666085902       -0.88099386251511
H           -3.36738080632596        0.08915556297412        0.00000927025731
H           -2.62126503237064        1.43050986743591        0.88051791686329
H           -2.20084629708976       -1.88016795343622        0.00002729681960
H           -0.09735957137632       -3.18796835750732        0.00020605256195
H            2.08607513032759       -2.00682657493860        0.00014232655171
H            0.64750588327171        2.56745913835464       -0.87642166541315
H           -0.88471752312403        2.67441251336941       -0.00224142006902
H            0.64302529534055        2.56727916698190        0.87969894747622
H            3.36254731251877       -0.06951682833573        0.00089037179007
H            2.65875301021202        1.29901336645420       -0.87951365356697
H            2.65803059647655        1.30079943397688        0.87799694812137
