 xtb: 6.7.1 (edcfbbe)
          04092505203D

 41 40  0     0  0            999 V2000
    3.3654   -2.1384   -2.1706 C   0  0  0  0  0  0  0  0  0  0  0  0
    3.9964   -0.8338   -1.7268 C   0  0  0  0  0  0  0  0  0  0  0  0
    3.5780   -0.4458   -0.4091 O   0  0  0  0  0  0  0  0  0  0  0  0
    2.0872    0.0062   -0.0630 P   0  0  0  0  0  0  0  0  0  0  0  0
    1.2677    1.0943   -1.4789 S   0  0  0  0  0  0  0  0  0  0  0  0
    2.3195    0.6415    1.3640 O   0  0  0  0  0  0  0  0  0  0  0  0
    2.5874    2.0410    1.5685 C   0  0  0  0  0  0  0  0  0  0  0  0
    3.9058    2.4672    0.9580 C   0  0  0  0  0  0  0  0  0  0  0  0
    1.1001   -1.7677    0.5088 S   0  0  0  0  0  0  0  0  0  0  0  0
   -0.2444   -1.7980   -0.7325 C   0  0  0  0  0  0  0  0  0  0  0  0
   -1.9076   -1.7226   -0.0234 S   0  0  0  0  0  0  0  0  0  0  0  0
   -2.0560    0.3634    0.3632 P   0  0  0  0  0  0  0  0  0  0  0  0
   -0.8062    1.1650    1.6402 S   0  0  0  0  0  0  0  0  0  0  0  0
   -3.5892    0.5193    0.7583 O   0  0  0  0  0  0  0  0  0  0  0  0
   -4.0634    0.3776    2.1086 C   0  0  0  0  0  0  0  0  0  0  0  0
   -3.9009   -1.0360    2.6280 C   0  0  0  0  0  0  0  0  0  0  0  0
   -1.9921    1.0838   -1.0354 O   0  0  0  0  0  0  0  0  0  0  0  0
   -2.9482    0.8928   -2.1124 C   0  0  0  0  0  0  0  0  0  0  0  0
   -2.3803   -0.0175   -3.1835 C   0  0  0  0  0  0  0  0  0  0  0  0
    3.5140   -2.9054   -1.4148 H   0  0  0  0  0  0  0  0  0  0  0  0
    2.2969   -1.9984   -2.3276 H   0  0  0  0  0  0  0  0  0  0  0  0
    3.8197   -2.4567   -3.1034 H   0  0  0  0  0  0  0  0  0  0  0  0
    3.7396   -0.0272   -2.4215 H   0  0  0  0  0  0  0  0  0  0  0  0
    5.0805   -0.9194   -1.6412 H   0  0  0  0  0  0  0  0  0  0  0  0
    1.7532    2.6157    1.1517 H   0  0  0  0  0  0  0  0  0  0  0  0
    2.5848    2.1460    2.6545 H   0  0  0  0  0  0  0  0  0  0  0  0
    4.7089    1.8326    1.3238 H   0  0  0  0  0  0  0  0  0  0  0  0
    3.8569    2.3855   -0.1275 H   0  0  0  0  0  0  0  0  0  0  0  0
    4.1065    3.4999    1.2256 H   0  0  0  0  0  0  0  0  0  0  0  0
   -0.1927   -2.7528   -1.2486 H   0  0  0  0  0  0  0  0  0  0  0  0
   -0.1008   -0.9562   -1.4163 H   0  0  0  0  0  0  0  0  0  0  0  0
   -3.5190    1.0859    2.7410 H   0  0  0  0  0  0  0  0  0  0  0  0
   -5.1132    0.6672    2.0448 H   0  0  0  0  0  0  0  0  0  0  0  0
   -4.3886   -1.1209    3.5938 H   0  0  0  0  0  0  0  0  0  0  0  0
   -4.3417   -1.7481    1.9349 H   0  0  0  0  0  0  0  0  0  0  0  0
   -2.8436   -1.2696    2.7468 H   0  0  0  0  0  0  0  0  0  0  0  0
   -3.8777    0.5002   -1.6973 H   0  0  0  0  0  0  0  0  0  0  0  0
   -3.1107    1.9001   -2.4990 H   0  0  0  0  0  0  0  0  0  0  0  0
   -2.3230   -1.0441   -2.8308 H   0  0  0  0  0  0  0  0  0  0  0  0
   -3.0265    0.0203   -4.0547 H   0  0  0  0  0  0  0  0  0  0  0  0
   -1.3859    0.3229   -3.4642 H   0  0  0  0  0  0  0  0  0  0  0  0
  1  2  1  0  0  0  0
  2  3  1  0  0  0  0
  3  4  2  0  0  0  0
  4  5  2  0  0  0  0
  4  6  2  0  0  0  0
  6  7  1  0  0  0  0
  7  8  1  0  0  0  0
  4  9  1  0  0  0  0
  9 10  1  0  0  0  0
 10 11  1  0  0  0  0
 11 12  1  0  0  0  0
 12 13  2  0  0  0  0
 12 14  2  0  0  0  0
 14 15  1  0  0  0  0
 15 16  1  0  0  0  0
 12 17  2  0  0  0  0
 17 18  1  0  0  0  0
 18 19  1  0  0  0  0
  1 20  1  0  0  0  0
  1 21  1  0  0  0  0
  1 22  1  0  0  0  0
  2 23  1  0  0  0  0
  2 24  1  0  0  0  0
  7 25  1  0  0  0  0
  7 26  1  0  0  0  0
  8 27  1  0  0  0  0
  8 28  1  0  0  0  0
  8 29  1  0  0  0  0
 10 30  1  0  0  0  0
 10 31  1  0  0  0  0
 15 32  1  0  0  0  0
 15 33  1  0  0  0  0
 16 34  1  0  0  0  0
 16 35  1  0  0  0  0
 16 36  1  0  0  0  0
 18 37  1  0  0  0  0
 18 38  1  0  0  0  0
 19 39  1  0  0  0  0
 19 40  1  0  0  0  0
 19 41  1  0  0  0  0
M  END
