 xtb: 6.7.1 (edcfbbe)
          04092505213D

 41 40  0     0  0            999 V2000
    3.4461   -2.3803    1.8845 C   0  0  0  0  0  0  0  0  0  0  0  0
    3.5279   -0.8736    1.7472 C   0  0  0  0  0  0  0  0  0  0  0  0
    3.5992   -0.4858    0.3502 O   0  0  0  0  0  0  0  0  0  0  0  0
    2.3505    0.0137   -0.4837 P   0  0  0  0  0  0  0  0  0  0  0  0
    2.8616    0.5754   -2.2827 S   0  0  0  0  0  0  0  0  0  0  0  0
    1.6318    1.1301    0.4248 O   0  0  0  0  0  0  0  0  0  0  0  0
    1.8116    2.5350    0.1813 C   0  0  0  0  0  0  0  0  0  0  0  0
    3.1799    2.9995    0.6359 C   0  0  0  0  0  0  0  0  0  0  0  0
    0.9248   -1.5332   -0.3246 S   0  0  0  0  0  0  0  0  0  0  0  0
   -0.1460   -0.9932   -1.6802 C   0  0  0  0  0  0  0  0  0  0  0  0
   -0.8227    0.6860   -1.4799 S   0  0  0  0  0  0  0  0  0  0  0  0
   -2.3810    0.2612   -0.1148 P   0  0  0  0  0  0  0  0  0  0  0  0
   -3.3406    1.8212    0.5768 S   0  0  0  0  0  0  0  0  0  0  0  0
   -1.7471   -0.6841    0.9961 O   0  0  0  0  0  0  0  0  0  0  0  0
   -1.0930   -0.1652    2.1689 C   0  0  0  0  0  0  0  0  0  0  0  0
   -0.7889   -1.3400    3.0757 C   0  0  0  0  0  0  0  0  0  0  0  0
   -3.2062   -0.7768   -0.9813 O   0  0  0  0  0  0  0  0  0  0  0  0
   -4.5927   -1.0635   -0.6978 C   0  0  0  0  0  0  0  0  0  0  0  0
   -4.7606   -1.7780    0.6261 C   0  0  0  0  0  0  0  0  0  0  0  0
    3.4734   -2.6413    2.9377 H   0  0  0  0  0  0  0  0  0  0  0  0
    2.5240   -2.7554    1.4459 H   0  0  0  0  0  0  0  0  0  0  0  0
    4.2870   -2.8451    1.3776 H   0  0  0  0  0  0  0  0  0  0  0  0
    4.4524   -0.4880    2.1803 H   0  0  0  0  0  0  0  0  0  0  0  0
    2.6685   -0.3832    2.2104 H   0  0  0  0  0  0  0  0  0  0  0  0
    1.6700    2.7240   -0.8878 H   0  0  0  0  0  0  0  0  0  0  0  0
    1.0072    3.0138    0.7430 H   0  0  0  0  0  0  0  0  0  0  0  0
    3.9496    2.4814    0.0639 H   0  0  0  0  0  0  0  0  0  0  0  0
    3.2721    4.0673    0.4650 H   0  0  0  0  0  0  0  0  0  0  0  0
    3.3208    2.7898    1.6930 H   0  0  0  0  0  0  0  0  0  0  0  0
   -0.9603   -1.7092   -1.7485 H   0  0  0  0  0  0  0  0  0  0  0  0
    0.4377   -0.9606   -2.5995 H   0  0  0  0  0  0  0  0  0  0  0  0
   -0.1770    0.3480    1.8623 H   0  0  0  0  0  0  0  0  0  0  0  0
   -1.7597    0.5620    2.6437 H   0  0  0  0  0  0  0  0  0  0  0  0
   -0.2770   -0.9830    3.9632 H   0  0  0  0  0  0  0  0  0  0  0  0
   -1.7103   -1.8348    3.3676 H   0  0  0  0  0  0  0  0  0  0  0  0
   -0.1569   -2.0515    2.5513 H   0  0  0  0  0  0  0  0  0  0  0  0
   -5.1476   -0.1202   -0.7019 H   0  0  0  0  0  0  0  0  0  0  0  0
   -4.9063   -1.6829   -1.5392 H   0  0  0  0  0  0  0  0  0  0  0  0
   -5.7998   -2.0666    0.7492 H   0  0  0  0  0  0  0  0  0  0  0  0
   -4.1312   -2.6633    0.6591 H   0  0  0  0  0  0  0  0  0  0  0  0
   -4.4797   -1.1123    1.4411 H   0  0  0  0  0  0  0  0  0  0  0  0
  1  2  1  0  0  0  0
  2  3  1  0  0  0  0
  3  4  2  0  0  0  0
  4  5  2  0  0  0  0
  4  6  1  0  0  0  0
  6  7  1  0  0  0  0
  7  8  1  0  0  0  0
  4  9  1  0  0  0  0
  9 10  1  0  0  0  0
 10 11  1  0  0  0  0
 11 12  1  0  0  0  0
 12 13  2  0  0  0  0
 12 14  2  0  0  0  0
 14 15  1  0  0  0  0
 15 16  1  0  0  0  0
 12 17  2  0  0  0  0
 17 18  1  0  0  0  0
 18 19  1  0  0  0  0
  1 20  1  0  0  0  0
  1 21  1  0  0  0  0
  1 22  1  0  0  0  0
  2 23  1  0  0  0  0
  2 24  1  0  0  0  0
  7 25  1  0  0  0  0
  7 26  1  0  0  0  0
  8 27  1  0  0  0  0
  8 28  1  0  0  0  0
  8 29  1  0  0  0  0
 10 30  1  0  0  0  0
 10 31  1  0  0  0  0
 15 32  1  0  0  0  0
 15 33  1  0  0  0  0
 16 34  1  0  0  0  0
 16 35  1  0  0  0  0
 16 36  1  0  0  0  0
 18 37  1  0  0  0  0
 18 38  1  0  0  0  0
 19 39  1  0  0  0  0
 19 40  1  0  0  0  0
 19 41  1  0  0  0  0
M  END
