41
 xtb: 6.7.1 (edcfbbe)
C            0.66544526992749       -0.62559830939475        3.40600738500092
C            1.91055464337333       -0.62409220166535        2.55772025622605
O            1.54700973246354       -0.03406224101405        1.25828878865074
P            2.44557016511410       -0.27152676607195       -0.04759280750317
S            3.02916260804063       -2.09457211752602       -0.41135557966447
O            3.59593174603753        0.83256060081228        0.17789419955545
C            4.75661669530569        0.92838818106697       -0.72175031835043
C            6.00397327669956        0.96816455918797        0.12193924353518
S            1.27242894142525        0.65603926164207       -1.54347038356193
C            0.27159795244960       -0.75398696484174       -2.16019125592975
S           -0.88302798121034       -1.55937034922273       -0.98284384558058
P           -2.19941422957098        0.03291140975306       -0.51762784629334
S           -2.60909238488193        1.26851567587273       -1.96611100101528
O           -1.54081432317480        0.64798744876541        0.80957970438775
C           -1.82345177961331        2.01740504114675        1.26456321667567
C           -3.18397278066724        2.11829148393469        1.90802494863187
O           -3.43077131097325       -0.78387134938711        0.12481141273837
C           -4.39885364007419       -1.48908114863862       -0.73151385870086
C           -5.78488581393149       -1.03498465801257       -0.35296769916724
H            0.27211794311426        0.38791961846103        3.52996591710416
H           -0.10844217091694       -1.25876170569299        2.96149986882634
H            0.91175737859879       -1.02373100801263        4.39542220464086
H            2.28697693389154       -1.63801784887644        2.38923482397800
H            2.70542647862583       -0.00725606291210        2.98914471190322
H            4.75953884389636        0.07109544873749       -1.40199588880552
H            4.62031407974417        1.84580964072502       -1.30064048888706
H            6.11825073503061        0.04047190787558        0.69014607626195
H            6.87363293585804        1.08422469929784       -0.53255961044740
H            5.98046183673220        1.81253018291068        0.81675010389125
H            0.93588899634432       -1.55277035242757       -2.50260017145103
H           -0.28982815478057       -0.35578784099900       -3.01035140489460
H           -1.02065311952314        2.21818380005314        1.97730725105740
H           -1.71913677293306        2.69265969459273        0.40972837352732
H           -3.30893437976866        3.12992465485796        2.30819312454780
H           -3.98511271424866        1.93769560797885        1.18462326261427
H           -3.28051991237619        1.40618822508901        2.73273839914530
H           -4.18035831569172       -1.27587769996919       -1.78241985987156
H           -4.24860105079540       -2.55567621792653       -0.54468160472710
H           -5.91250165939086        0.03257565215713       -0.55453651087698
H           -6.51745985115756       -1.59107724899274       -0.94649465503547
H           -5.98268384444589       -1.22510852260952        0.70584017819689
