 xtb: 6.7.1 (edcfbbe)
          04092505203D

 41 40  0     0  0            999 V2000
    3.3242    2.7414    1.6716 C   0  0  0  0  0  0  0  0  0  0  0  0
    2.0441    2.0650    1.2249 C   0  0  0  0  0  0  0  0  0  0  0  0
    2.0363    0.6713    1.6173 O   0  0  0  0  0  0  0  0  0  0  0  0
    2.4420   -0.5139    0.6612 P   0  0  0  0  0  0  0  0  0  0  0  0
    2.4189   -2.1888    1.6699 S   0  0  0  0  0  0  0  0  0  0  0  0
    3.8180   -0.0006    0.0565 O   0  0  0  0  0  0  0  0  0  0  0  0
    4.4528   -0.5223   -1.1257 C   0  0  0  0  0  0  0  0  0  0  0  0
    4.6506   -2.0224   -1.0736 C   0  0  0  0  0  0  0  0  0  0  0  0
    1.1261   -0.4288   -1.0298 S   0  0  0  0  0  0  0  0  0  0  0  0
   -0.1618   -1.4798   -0.3267 C   0  0  0  0  0  0  0  0  0  0  0  0
   -1.2660   -0.5916    0.7942 S   0  0  0  0  0  0  0  0  0  0  0  0
   -2.4684    0.2995   -0.7390 P   0  0  0  0  0  0  0  0  0  0  0  0
   -2.7639   -0.7866   -2.3357 S   0  0  0  0  0  0  0  0  0  0  0  0
   -1.7453    1.6567   -1.0884 O   0  0  0  0  0  0  0  0  0  0  0  0
   -1.4537    2.6942   -0.1213 C   0  0  0  0  0  0  0  0  0  0  0  0
   -2.5578    3.7308   -0.0808 C   0  0  0  0  0  0  0  0  0  0  0  0
   -3.7729    0.7766    0.0336 O   0  0  0  0  0  0  0  0  0  0  0  0
   -4.9220   -0.0731    0.2048 C   0  0  0  0  0  0  0  0  0  0  0  0
   -4.6297   -1.2730    1.0818 C   0  0  0  0  0  0  0  0  0  0  0  0
    3.4449    2.6319    2.7457 H   0  0  0  0  0  0  0  0  0  0  0  0
    4.1814    2.2929    1.1769 H   0  0  0  0  0  0  0  0  0  0  0  0
    3.2751    3.7964    1.4211 H   0  0  0  0  0  0  0  0  0  0  0  0
    1.9181    2.1286    0.1401 H   0  0  0  0  0  0  0  0  0  0  0  0
    1.1754    2.4947    1.7273 H   0  0  0  0  0  0  0  0  0  0  0  0
    3.8454   -0.2422   -1.9909 H   0  0  0  0  0  0  0  0  0  0  0  0
    5.4087    0.0037   -1.1574 H   0  0  0  0  0  0  0  0  0  0  0  0
    5.2155   -2.3423   -1.9432 H   0  0  0  0  0  0  0  0  0  0  0  0
    5.1877   -2.3034   -0.1707 H   0  0  0  0  0  0  0  0  0  0  0  0
    3.6869   -2.5299   -1.0708 H   0  0  0  0  0  0  0  0  0  0  0  0
    0.3082   -2.2773    0.2520 H   0  0  0  0  0  0  0  0  0  0  0  0
   -0.7433   -1.8763   -1.1606 H   0  0  0  0  0  0  0  0  0  0  0  0
   -1.3094    2.2308    0.8593 H   0  0  0  0  0  0  0  0  0  0  0  0
   -0.5160    3.1302   -0.4716 H   0  0  0  0  0  0  0  0  0  0  0  0
   -2.2622    4.5366    0.5839 H   0  0  0  0  0  0  0  0  0  0  0  0
   -2.7271    4.1308   -1.0766 H   0  0  0  0  0  0  0  0  0  0  0  0
   -3.4813    3.2876    0.2812 H   0  0  0  0  0  0  0  0  0  0  0  0
   -5.6657    0.5838    0.6582 H   0  0  0  0  0  0  0  0  0  0  0  0
   -5.2618   -0.3943   -0.7844 H   0  0  0  0  0  0  0  0  0  0  0  0
   -4.1818   -0.9582    2.0212 H   0  0  0  0  0  0  0  0  0  0  0  0
   -5.5551   -1.8028    1.2834 H   0  0  0  0  0  0  0  0  0  0  0  0
   -3.9425   -1.9486    0.5742 H   0  0  0  0  0  0  0  0  0  0  0  0
  1  2  1  0  0  0  0
  2  3  1  0  0  0  0
  3  4  2  0  0  0  0
  4  5  2  0  0  0  0
  4  6  2  0  0  0  0
  6  7  1  0  0  0  0
  7  8  1  0  0  0  0
  4  9  1  0  0  0  0
  9 10  1  0  0  0  0
 10 11  1  0  0  0  0
 11 12  1  0  0  0  0
 12 13  2  0  0  0  0
 12 14  2  0  0  0  0
 14 15  1  0  0  0  0
 15 16  1  0  0  0  0
 12 17  2  0  0  0  0
 17 18  1  0  0  0  0
 18 19  1  0  0  0  0
  1 20  1  0  0  0  0
  1 21  1  0  0  0  0
  1 22  1  0  0  0  0
  2 23  1  0  0  0  0
  2 24  1  0  0  0  0
  7 25  1  0  0  0  0
  7 26  1  0  0  0  0
  8 27  1  0  0  0  0
  8 28  1  0  0  0  0
  8 29  1  0  0  0  0
 10 30  1  0  0  0  0
 10 31  1  0  0  0  0
 15 32  1  0  0  0  0
 15 33  1  0  0  0  0
 16 34  1  0  0  0  0
 16 35  1  0  0  0  0
 16 36  1  0  0  0  0
 18 37  1  0  0  0  0
 18 38  1  0  0  0  0
 19 39  1  0  0  0  0
 19 40  1  0  0  0  0
 19 41  1  0  0  0  0
M  END
