  21
 
 C         -3.8838317459       -0.6749761980       -0.0021690930
 C         -2.7178823979        0.3071395360        0.0003610147
 C         -1.3866639888       -0.4262656555       -0.0006220739
 S          0.0002500404        0.7704078574        0.0001052137
 C          1.3872172767       -0.4264706255        0.0002689397
 C          2.7186093279        0.3065730143       -0.0001707490
 C          3.8842571092       -0.6759135867        0.0020991267
 H         -4.8273740244       -0.1366615339        0.0005102885
 H         -3.8477222448       -1.3061639406       -0.8869492971
 H         -3.8462313830       -1.3124069061        0.8780974082
 H         -2.7706059385        0.9473490927        0.8831514721
 H         -2.7697882153        0.9512400895       -0.8796359231
 H         -1.2808825221       -1.0469889172        0.8901331671
 H         -1.2813372010       -1.0454175310       -0.8925212541
 H          1.2813300374       -1.0465900490       -0.8908593599
 H          1.2816304046       -1.0460430921        0.8918188308
 H          2.7716499734        0.9471970688       -0.8826515537
 H          2.7705615698        0.9502649146        0.8801305098
 H          4.8280390640       -0.1380038502       -0.0003568123
 H          3.8478521146       -1.3073477819        0.8867052704
 H          3.8464271757       -1.3130977396       -0.8783507081
          21
        -23.23315994
 C         -3.2019997946       -0.2255797111       -0.3315461069
 C         -2.2113499574        0.8612777209        0.0643564058
 C         -1.0747134747        0.3117224132        0.9134042404
 S         -0.0003876503       -0.8541667560        0.0019997895
 C          1.0743832250        0.3078168715       -0.9138297937
 C          2.2103161170        0.8606152010       -0.0658882281
 C          3.2041161372       -0.2236324803        0.3292128630
 H         -2.6881494722       -1.0228846250       -0.8647190100
 H         -3.6711599534       -0.6524064759        0.5519317014
 H         -3.9772698173        0.1809047616       -0.9753752811
 H         -2.7219661353        1.6373219529        0.6393793678
 H         -1.8042015374        1.3286338543       -0.8354838036
 H         -0.4360393698        1.1077028831        1.2939668362
 H         -1.4631165571       -0.2656543084        1.7514201208
 H          0.4359446551        1.1020963478       -1.2983488230
 H          1.4633175788       -0.2732671361       -1.7490328141
 H          2.7183711183        1.6382238696       -0.6409987252
 H          1.8026029322        1.3266162113        0.8344162543
 H          3.9791193668        0.1849010663        0.9719051354
 H          2.6927457962       -1.0219717158        0.8631138500
 H          3.6731675678       -0.6495880578       -0.5546548380
