 xtb: 6.7.1 (edcfbbe)
          04092505213D

 41 40  0     0  0            999 V2000
    5.6091   -1.8059   -0.4038 C   0  0  0  0  0  0  0  0  0  0  0  0
    4.3696   -1.1389   -0.9651 C   0  0  0  0  0  0  0  0  0  0  0  0
    3.5323   -0.7573    0.1444 O   0  0  0  0  0  0  0  0  0  0  0  0
    2.3882    0.3290   -0.0243 P   0  0  0  0  0  0  0  0  0  0  0  0
    2.9621    2.0053   -0.8565 S   0  0  0  0  0  0  0  0  0  0  0  0
    1.8875    0.5618    1.4459 O   0  0  0  0  0  0  0  0  0  0  0  0
    1.1296   -0.3487    2.2812 C   0  0  0  0  0  0  0  0  0  0  0  0
    1.7467   -1.7268    2.3751 C   0  0  0  0  0  0  0  0  0  0  0  0
    0.8643   -0.7293   -1.0903 S   0  0  0  0  0  0  0  0  0  0  0  0
    0.0135    0.7293   -1.7274 C   0  0  0  0  0  0  0  0  0  0  0  0
   -0.9307    1.6063   -0.4560 S   0  0  0  0  0  0  0  0  0  0  0  0
   -2.4915    0.1740   -0.3409 P   0  0  0  0  0  0  0  0  0  0  0  0
   -3.0794   -0.6350   -2.0194 S   0  0  0  0  0  0  0  0  0  0  0  0
   -3.6795    0.9385    0.3715 O   0  0  0  0  0  0  0  0  0  0  0  0
   -3.5571    1.9580    1.3901 C   0  0  0  0  0  0  0  0  0  0  0  0
   -2.9053    1.4402    2.6548 C   0  0  0  0  0  0  0  0  0  0  0  0
   -1.8698   -0.8591    0.7108 O   0  0  0  0  0  0  0  0  0  0  0  0
   -2.1497   -2.2701    0.6615 C   0  0  0  0  0  0  0  0  0  0  0  0
   -3.5226   -2.5674    1.2282 C   0  0  0  0  0  0  0  0  0  0  0  0
    6.2524   -2.1083   -1.2234 H   0  0  0  0  0  0  0  0  0  0  0  0
    6.1470   -1.1127    0.2368 H   0  0  0  0  0  0  0  0  0  0  0  0
    5.3308   -2.6803    0.1770 H   0  0  0  0  0  0  0  0  0  0  0  0
    3.8007   -1.8216   -1.6020 H   0  0  0  0  0  0  0  0  0  0  0  0
    4.6222   -0.2406   -1.5386 H   0  0  0  0  0  0  0  0  0  0  0  0
    1.1211    0.1568    3.2483 H   0  0  0  0  0  0  0  0  0  0  0  0
    0.1131   -0.4040    1.8836 H   0  0  0  0  0  0  0  0  0  0  0  0
    1.1951   -2.3116    3.1053 H   0  0  0  0  0  0  0  0  0  0  0  0
    1.7026   -2.2276    1.4098 H   0  0  0  0  0  0  0  0  0  0  0  0
    2.7856   -1.6528    2.6856 H   0  0  0  0  0  0  0  0  0  0  0  0
   -0.6639    0.3902   -2.5119 H   0  0  0  0  0  0  0  0  0  0  0  0
    0.7518    1.4359   -2.1094 H   0  0  0  0  0  0  0  0  0  0  0  0
   -2.9897    2.7943    0.9730 H   0  0  0  0  0  0  0  0  0  0  0  0
   -4.5905    2.2628    1.5633 H   0  0  0  0  0  0  0  0  0  0  0  0
   -1.8713    1.1653    2.4584 H   0  0  0  0  0  0  0  0  0  0  0  0
   -2.9245    2.2220    3.4077 H   0  0  0  0  0  0  0  0  0  0  0  0
   -3.4413    0.5712    3.0269 H   0  0  0  0  0  0  0  0  0  0  0  0
   -2.0770   -2.6066   -0.3773 H   0  0  0  0  0  0  0  0  0  0  0  0
   -1.3549   -2.7258    1.2534 H   0  0  0  0  0  0  0  0  0  0  0  0
   -3.7058   -3.6365    1.1912 H   0  0  0  0  0  0  0  0  0  0  0  0
   -3.5913   -2.2251    2.2571 H   0  0  0  0  0  0  0  0  0  0  0  0
   -4.2803   -2.0567    0.6339 H   0  0  0  0  0  0  0  0  0  0  0  0
  1  2  1  0  0  0  0
  2  3  1  0  0  0  0
  3  4  2  0  0  0  0
  4  5  2  0  0  0  0
  4  6  2  0  0  0  0
  6  7  1  0  0  0  0
  7  8  1  0  0  0  0
  4  9  1  0  0  0  0
  9 10  1  0  0  0  0
 10 11  1  0  0  0  0
 11 12  1  0  0  0  0
 12 13  2  0  0  0  0
 12 14  2  0  0  0  0
 14 15  1  0  0  0  0
 15 16  1  0  0  0  0
 12 17  1  0  0  0  0
 17 18  1  0  0  0  0
 18 19  1  0  0  0  0
  1 20  1  0  0  0  0
  1 21  1  0  0  0  0
  1 22  1  0  0  0  0
  2 23  1  0  0  0  0
  2 24  1  0  0  0  0
  7 25  1  0  0  0  0
  7 26  1  0  0  0  0
  8 27  1  0  0  0  0
  8 28  1  0  0  0  0
  8 29  1  0  0  0  0
 10 30  1  0  0  0  0
 10 31  1  0  0  0  0
 15 32  1  0  0  0  0
 15 33  1  0  0  0  0
 16 34  1  0  0  0  0
 16 35  1  0  0  0  0
 16 36  1  0  0  0  0
 18 37  1  0  0  0  0
 18 38  1  0  0  0  0
 19 39  1  0  0  0  0
 19 40  1  0  0  0  0
 19 41  1  0  0  0  0
M  END
