 xtb: 6.7.1 (edcfbbe)
          04032520033D

 10  9  0     0  0            999 V2000
   -0.6939   -0.5480   -0.3284 C   0  0  0  0  0  0  0  0  0  0  0  0
    0.6889   -0.5781    0.3253 C   0  0  0  0  0  0  0  0  0  0  0  0
    1.4572    0.5030   -0.1595 O   0  0  0  0  0  0  0  0  0  0  0  0
   -1.4973    0.5307    0.0846 O   0  0  0  0  0  0  0  0  0  0  0  0
   -1.1990   -1.5023   -0.1265 H   0  0  0  0  0  0  0  0  0  0  0  0
   -0.5742   -0.4263   -1.4067 H   0  0  0  0  0  0  0  0  0  0  0  0
    1.1662   -1.5334    0.0713 H   0  0  0  0  0  0  0  0  0  0  0  0
    0.5807   -0.5127    1.4165 H   0  0  0  0  0  0  0  0  0  0  0  0
    2.3273    0.4964    0.2619 H   0  0  0  0  0  0  0  0  0  0  0  0
   -1.5864    0.5148    1.0483 H   0  0  0  0  0  0  0  0  0  0  0  0
  1  2  1  0  0  0  0
  2  3  1  0  0  0  0
  1  4  1  0  0  0  0
  1  5  1  0  0  0  0
  1  6  1  0  0  0  0
  2  7  1  0  0  0  0
  2  8  1  0  0  0  0
  3  9  1  0  0  0  0
  4 10  1  0  0  0  0
M  END
