 xtb: 6.7.1 (edcfbbe)
          04092505203D

 41 40  0     0  0            999 V2000
    5.2822   -0.6091   -2.5204 C   0  0  0  0  0  0  0  0  0  0  0  0
    3.8887   -0.9807   -2.0567 C   0  0  0  0  0  0  0  0  0  0  0  0
    3.5392   -0.1069   -0.9621 O   0  0  0  0  0  0  0  0  0  0  0  0
    2.0359    0.0338   -0.4771 P   0  0  0  0  0  0  0  0  0  0  0  0
    0.7604    0.4832   -1.8961 S   0  0  0  0  0  0  0  0  0  0  0  0
    2.1188    1.1553    0.6199 O   0  0  0  0  0  0  0  0  0  0  0  0
    3.2454    1.4256    1.4930 C   0  0  0  0  0  0  0  0  0  0  0  0
    3.4571    0.3385    2.5252 C   0  0  0  0  0  0  0  0  0  0  0  0
    1.7003   -1.8421    0.4741 S   0  0  0  0  0  0  0  0  0  0  0  0
    0.1139   -1.5084    1.2775 C   0  0  0  0  0  0  0  0  0  0  0  0
   -1.3226   -1.5707    0.1624 S   0  0  0  0  0  0  0  0  0  0  0  0
   -2.0129    0.4434    0.3080 P   0  0  0  0  0  0  0  0  0  0  0  0
   -0.9702    1.6232    1.4662 S   0  0  0  0  0  0  0  0  0  0  0  0
   -3.5224    0.2442    0.7845 O   0  0  0  0  0  0  0  0  0  0  0  0
   -3.8292   -0.2168    2.1146 C   0  0  0  0  0  0  0  0  0  0  0  0
   -5.3138   -0.0205    2.3453 C   0  0  0  0  0  0  0  0  0  0  0  0
   -2.2164    1.0077   -1.1396 O   0  0  0  0  0  0  0  0  0  0  0  0
   -2.8444    0.2721   -2.2194 C   0  0  0  0  0  0  0  0  0  0  0  0
   -4.3039    0.6530   -2.3489 C   0  0  0  0  0  0  0  0  0  0  0  0
    5.9891   -0.7239   -1.7040 H   0  0  0  0  0  0  0  0  0  0  0  0
    5.5687   -1.2612   -3.3387 H   0  0  0  0  0  0  0  0  0  0  0  0
    5.3000    0.4224   -2.8615 H   0  0  0  0  0  0  0  0  0  0  0  0
    3.8478   -2.0108   -1.6936 H   0  0  0  0  0  0  0  0  0  0  0  0
    3.1489   -0.8512   -2.8535 H   0  0  0  0  0  0  0  0  0  0  0  0
    4.1321    1.5601    0.8718 H   0  0  0  0  0  0  0  0  0  0  0  0
    2.9658    2.3719    1.9594 H   0  0  0  0  0  0  0  0  0  0  0  0
    3.7595   -0.5907    2.0480 H   0  0  0  0  0  0  0  0  0  0  0  0
    4.2387    0.6558    3.2087 H   0  0  0  0  0  0  0  0  0  0  0  0
    2.5422    0.1704    3.0882 H   0  0  0  0  0  0  0  0  0  0  0  0
    0.1386   -0.5201    1.7466 H   0  0  0  0  0  0  0  0  0  0  0  0
   -0.0098   -2.2993    2.0124 H   0  0  0  0  0  0  0  0  0  0  0  0
   -3.5503   -1.2724    2.1830 H   0  0  0  0  0  0  0  0  0  0  0  0
   -3.2316    0.3610    2.8276 H   0  0  0  0  0  0  0  0  0  0  0  0
   -5.5653   -0.3558    3.3460 H   0  0  0  0  0  0  0  0  0  0  0  0
   -5.5704    1.0302    2.2435 H   0  0  0  0  0  0  0  0  0  0  0  0
   -5.8830   -0.5945    1.6199 H   0  0  0  0  0  0  0  0  0  0  0  0
   -2.2669    0.5514   -3.1031 H   0  0  0  0  0  0  0  0  0  0  0  0
   -2.7250   -0.7994   -2.0350 H   0  0  0  0  0  0  0  0  0  0  0  0
   -4.3955    1.7252   -2.4986 H   0  0  0  0  0  0  0  0  0  0  0  0
   -4.7292    0.1328   -3.2013 H   0  0  0  0  0  0  0  0  0  0  0  0
   -4.8457    0.3762   -1.4485 H   0  0  0  0  0  0  0  0  0  0  0  0
  1  2  1  0  0  0  0
  2  3  1  0  0  0  0
  3  4  2  0  0  0  0
  4  5  2  0  0  0  0
  4  6  2  0  0  0  0
  6  7  1  0  0  0  0
  7  8  1  0  0  0  0
  4  9  1  0  0  0  0
  9 10  1  0  0  0  0
 10 11  1  0  0  0  0
 11 12  1  0  0  0  0
 12 13  2  0  0  0  0
 12 14  2  0  0  0  0
 14 15  1  0  0  0  0
 15 16  1  0  0  0  0
 12 17  2  0  0  0  0
 17 18  1  0  0  0  0
 18 19  1  0  0  0  0
  1 20  1  0  0  0  0
  1 21  1  0  0  0  0
  1 22  1  0  0  0  0
  2 23  1  0  0  0  0
  2 24  1  0  0  0  0
  7 25  1  0  0  0  0
  7 26  1  0  0  0  0
  8 27  1  0  0  0  0
  8 28  1  0  0  0  0
  8 29  1  0  0  0  0
 10 30  1  0  0  0  0
 10 31  1  0  0  0  0
 15 32  1  0  0  0  0
 15 33  1  0  0  0  0
 16 34  1  0  0  0  0
 16 35  1  0  0  0  0
 16 36  1  0  0  0  0
 18 37  1  0  0  0  0
 18 38  1  0  0  0  0
 19 39  1  0  0  0  0
 19 40  1  0  0  0  0
 19 41  1  0  0  0  0
M  END
