 xtb: 6.7.1 (edcfbbe)
          04092505203D

 41 40  0     0  0            999 V2000
    4.6720   -0.2616   -2.4982 C   0  0  0  0  0  0  0  0  0  0  0  0
    3.5332   -1.2039   -2.1579 C   0  0  0  0  0  0  0  0  0  0  0  0
    3.1738   -1.0684   -0.7700 O   0  0  0  0  0  0  0  0  0  0  0  0
    1.8472   -0.3308   -0.2848 P   0  0  0  0  0  0  0  0  0  0  0  0
    1.4634    1.2822   -1.3376 S   0  0  0  0  0  0  0  0  0  0  0  0
    2.1040   -0.1790    1.2667 O   0  0  0  0  0  0  0  0  0  0  0  0
    2.6969    1.0087    1.8309 C   0  0  0  0  0  0  0  0  0  0  0  0
    4.1486    1.1522    1.4309 C   0  0  0  0  0  0  0  0  0  0  0  0
    0.5159   -1.9872   -0.2707 S   0  0  0  0  0  0  0  0  0  0  0  0
   -0.4787   -1.8159    1.2498 C   0  0  0  0  0  0  0  0  0  0  0  0
   -2.2269   -1.4787    0.9351 S   0  0  0  0  0  0  0  0  0  0  0  0
   -1.9774    0.5544    0.3734 P   0  0  0  0  0  0  0  0  0  0  0  0
   -0.7343    1.5726    1.4871 S   0  0  0  0  0  0  0  0  0  0  0  0
   -3.4574    1.1250    0.2985 O   0  0  0  0  0  0  0  0  0  0  0  0
   -4.1538    1.6663    1.4373 C   0  0  0  0  0  0  0  0  0  0  0  0
   -4.4201    0.6236    2.5030 C   0  0  0  0  0  0  0  0  0  0  0  0
   -1.5702    0.5152   -1.1474 O   0  0  0  0  0  0  0  0  0  0  0  0
   -2.4195   -0.0740   -2.1688 C   0  0  0  0  0  0  0  0  0  0  0  0
   -1.5326   -0.7404   -3.1996 C   0  0  0  0  0  0  0  0  0  0  0  0
    4.9875   -0.4375   -3.5214 H   0  0  0  0  0  0  0  0  0  0  0  0
    4.3399    0.7700   -2.4024 H   0  0  0  0  0  0  0  0  0  0  0  0
    5.5096   -0.4300   -1.8275 H   0  0  0  0  0  0  0  0  0  0  0  0
    3.8263   -2.2482   -2.2788 H   0  0  0  0  0  0  0  0  0  0  0  0
    2.6603   -0.9921   -2.7817 H   0  0  0  0  0  0  0  0  0  0  0  0
    2.1102    1.8758    1.5099 H   0  0  0  0  0  0  0  0  0  0  0  0
    2.5778    0.8717    2.9067 H   0  0  0  0  0  0  0  0  0  0  0  0
    4.2192    1.3268    0.3583 H   0  0  0  0  0  0  0  0  0  0  0  0
    4.5825    1.9969    1.9566 H   0  0  0  0  0  0  0  0  0  0  0  0
    4.6961    0.2467    1.6788 H   0  0  0  0  0  0  0  0  0  0  0  0
   -0.0597   -1.0173    1.8616 H   0  0  0  0  0  0  0  0  0  0  0  0
   -0.4374   -2.7745    1.7595 H   0  0  0  0  0  0  0  0  0  0  0  0
   -3.5594    2.4903    1.8434 H   0  0  0  0  0  0  0  0  0  0  0  0
   -5.0800    2.0526    1.0094 H   0  0  0  0  0  0  0  0  0  0  0  0
   -4.9039   -0.2478    2.0690 H   0  0  0  0  0  0  0  0  0  0  0  0
   -3.4840    0.3135    2.9644 H   0  0  0  0  0  0  0  0  0  0  0  0
   -5.0626    1.0513    3.2659 H   0  0  0  0  0  0  0  0  0  0  0  0
   -3.0957   -0.7918   -1.6952 H   0  0  0  0  0  0  0  0  0  0  0  0
   -2.9988    0.7423   -2.6032 H   0  0  0  0  0  0  0  0  0  0  0  0
   -2.1453   -1.0897   -4.0241 H   0  0  0  0  0  0  0  0  0  0  0  0
   -0.8009   -0.0260   -3.5691 H   0  0  0  0  0  0  0  0  0  0  0  0
   -1.0054   -1.5840   -2.7598 H   0  0  0  0  0  0  0  0  0  0  0  0
  1  2  1  0  0  0  0
  2  3  1  0  0  0  0
  3  4  2  0  0  0  0
  4  5  2  0  0  0  0
  4  6  2  0  0  0  0
  6  7  1  0  0  0  0
  7  8  1  0  0  0  0
  4  9  1  0  0  0  0
  9 10  1  0  0  0  0
 10 11  1  0  0  0  0
 11 12  1  0  0  0  0
 12 13  2  0  0  0  0
 12 14  2  0  0  0  0
 14 15  1  0  0  0  0
 15 16  1  0  0  0  0
 12 17  2  0  0  0  0
 17 18  1  0  0  0  0
 18 19  1  0  0  0  0
  1 20  1  0  0  0  0
  1 21  1  0  0  0  0
  1 22  1  0  0  0  0
  2 23  1  0  0  0  0
  2 24  1  0  0  0  0
  7 25  1  0  0  0  0
  7 26  1  0  0  0  0
  8 27  1  0  0  0  0
  8 28  1  0  0  0  0
  8 29  1  0  0  0  0
 10 30  1  0  0  0  0
 10 31  1  0  0  0  0
 15 32  1  0  0  0  0
 15 33  1  0  0  0  0
 16 34  1  0  0  0  0
 16 35  1  0  0  0  0
 16 36  1  0  0  0  0
 18 37  1  0  0  0  0
 18 38  1  0  0  0  0
 19 39  1  0  0  0  0
 19 40  1  0  0  0  0
 19 41  1  0  0  0  0
M  END
