 xtb: 6.7.1 (edcfbbe)
          04092513593D

 41 40  0     0  0            999 V2000
    4.2504   -0.7710   -2.9376 C   0  0  0  0  0  0  0  0  0  0  0  0
    4.2666   -1.2344   -1.4951 C   0  0  0  0  0  0  0  0  0  0  0  0
    3.9646   -0.1098   -0.6274 O   0  0  0  0  0  0  0  0  0  0  0  0
    2.7460   -0.0862    0.3728 P   0  0  0  0  0  0  0  0  0  0  0  0
    2.6907    1.5814    1.3873 S   0  0  0  0  0  0  0  0  0  0  0  0
    3.0017   -1.4123    1.2179 O   0  0  0  0  0  0  0  0  0  0  0  0
    2.4088   -1.6415    2.5075 C   0  0  0  0  0  0  0  0  0  0  0  0
    0.9307   -1.9610    2.4098 C   0  0  0  0  0  0  0  0  0  0  0  0
    1.0389   -0.5686   -0.8315 S   0  0  0  0  0  0  0  0  0  0  0  0
    0.3373    1.0939   -0.9926 C   0  0  0  0  0  0  0  0  0  0  0  0
   -0.7901    1.5487    0.3585 S   0  0  0  0  0  0  0  0  0  0  0  0
   -2.3857    0.2848   -0.2094 P   0  0  0  0  0  0  0  0  0  0  0  0
   -2.7247    0.0754   -2.1324 S   0  0  0  0  0  0  0  0  0  0  0  0
   -3.6219    0.8006    0.6466 O   0  0  0  0  0  0  0  0  0  0  0  0
   -4.5788    1.7540    0.1532 C   0  0  0  0  0  0  0  0  0  0  0  0
   -4.0077    3.1552    0.0703 C   0  0  0  0  0  0  0  0  0  0  0  0
   -1.9735   -1.0302    0.5713 O   0  0  0  0  0  0  0  0  0  0  0  0
   -2.4508   -2.3380    0.1926 C   0  0  0  0  0  0  0  0  0  0  0  0
   -3.9246   -2.5149    0.4931 C   0  0  0  0  0  0  0  0  0  0  0  0
    4.9487    0.0503   -3.0723 H   0  0  0  0  0  0  0  0  0  0  0  0
    4.5386   -1.5964   -3.5806 H   0  0  0  0  0  0  0  0  0  0  0  0
    3.2542   -0.4352   -3.2152 H   0  0  0  0  0  0  0  0  0  0  0  0
    5.2579   -1.5795   -1.1970 H   0  0  0  0  0  0  0  0  0  0  0  0
    3.5354   -2.0275   -1.3225 H   0  0  0  0  0  0  0  0  0  0  0  0
    2.9737   -2.4854    2.9072 H   0  0  0  0  0  0  0  0  0  0  0  0
    2.5750   -0.7554    3.1282 H   0  0  0  0  0  0  0  0  0  0  0  0
    0.5633   -2.2539    3.3882 H   0  0  0  0  0  0  0  0  0  0  0  0
    0.3721   -1.0876    2.0755 H   0  0  0  0  0  0  0  0  0  0  0  0
    0.7690   -2.7725    1.7044 H   0  0  0  0  0  0  0  0  0  0  0  0
   -0.2121    1.1091   -1.9339 H   0  0  0  0  0  0  0  0  0  0  0  0
    1.1371    1.8318   -0.9822 H   0  0  0  0  0  0  0  0  0  0  0  0
   -4.9235    1.4217   -0.8316 H   0  0  0  0  0  0  0  0  0  0  0  0
   -5.3981    1.6985    0.8717 H   0  0  0  0  0  0  0  0  0  0  0  0
   -3.5811    3.4485    1.0261 H   0  0  0  0  0  0  0  0  0  0  0  0
   -3.2279    3.1990   -0.6888 H   0  0  0  0  0  0  0  0  0  0  0  0
   -4.7995    3.8478   -0.1981 H   0  0  0  0  0  0  0  0  0  0  0  0
   -2.2516   -2.4822   -0.8741 H   0  0  0  0  0  0  0  0  0  0  0  0
   -1.8354   -3.0201    0.7802 H   0  0  0  0  0  0  0  0  0  0  0  0
   -4.1262   -2.2900    1.5370 H   0  0  0  0  0  0  0  0  0  0  0  0
   -4.5154   -1.8466   -0.1321 H   0  0  0  0  0  0  0  0  0  0  0  0
   -4.2121   -3.5403    0.2815 H   0  0  0  0  0  0  0  0  0  0  0  0
  1  2  1  0  0  0  0
  2  3  1  0  0  0  0
  3  4  2  0  0  0  0
  4  5  2  0  0  0  0
  4  6  2  0  0  0  0
  6  7  1  0  0  0  0
  7  8  1  0  0  0  0
  4  9  1  0  0  0  0
  9 10  1  0  0  0  0
 10 11  1  0  0  0  0
 11 12  1  0  0  0  0
 12 13  2  0  0  0  0
 12 14  2  0  0  0  0
 14 15  1  0  0  0  0
 15 16  1  0  0  0  0
 12 17  2  0  0  0  0
 17 18  1  0  0  0  0
 18 19  1  0  0  0  0
  1 20  1  0  0  0  0
  1 21  1  0  0  0  0
  1 22  1  0  0  0  0
  2 23  1  0  0  0  0
  2 24  1  0  0  0  0
  7 25  1  0  0  0  0
  7 26  1  0  0  0  0
  8 27  1  0  0  0  0
  8 28  1  0  0  0  0
  8 29  1  0  0  0  0
 10 30  1  0  0  0  0
 10 31  1  0  0  0  0
 15 32  1  0  0  0  0
 15 33  1  0  0  0  0
 16 34  1  0  0  0  0
 16 35  1  0  0  0  0
 16 36  1  0  0  0  0
 18 37  1  0  0  0  0
 18 38  1  0  0  0  0
 19 39  1  0  0  0  0
 19 40  1  0  0  0  0
 19 41  1  0  0  0  0
M  END
