 xtb: 6.7.1 (edcfbbe)
          04092507313D

 38 37  0     0  0            999 V2000
    1.2989   -3.5817   -2.2897 C   0  0  0  0  0  0  0  0  0  0  0  0
    2.5659   -2.7424   -2.2545 C   0  0  0  0  0  0  0  0  0  0  0  0
    2.3607   -1.5729   -1.4396 O   0  0  0  0  0  0  0  0  0  0  0  0
    2.7505   -1.6003   -0.1811 C   0  0  0  0  0  0  0  0  0  0  0  0
    3.3487   -2.5147    0.3383 O   0  0  0  0  0  0  0  0  0  0  0  0
    2.3874   -0.3201    0.5527 C   0  0  0  0  0  0  0  0  0  0  0  0
    1.0006    0.1810    0.1621 C   0  0  0  0  0  0  0  0  0  0  0  0
    0.9582    0.3697   -0.9147 H   0  0  0  0  0  0  0  0  0  0  0  0
    0.6431    1.4612    0.8939 C   0  0  0  0  0  0  0  0  0  0  0  0
   -0.3161    1.5560    1.6327 O   0  0  0  0  0  0  0  0  0  0  0  0
    1.4830    2.4228    0.6279 O   0  0  0  0  0  0  0  0  0  0  0  0
    1.2283    3.7202    1.2096 C   0  0  0  0  0  0  0  0  0  0  0  0
    2.1361    4.7232    0.5275 C   0  0  0  0  0  0  0  0  0  0  0  0
   -0.2654   -1.0726    0.5665 S   0  0  0  0  0  0  0  0  0  0  0  0
   -1.9805    0.0729    0.0545 P   0  0  0  0  0  0  0  0  0  0  0  0
   -1.7115    1.5227   -1.2313 S   0  0  0  0  0  0  0  0  0  0  0  0
   -2.9555   -1.0810   -0.4930 O   0  0  0  0  0  0  0  0  0  0  0  0
   -2.6793   -1.7721   -1.7145 C   0  0  0  0  0  0  0  0  0  0  0  0
   -2.7998    0.5009    1.3328 O   0  0  0  0  0  0  0  0  0  0  0  0
   -3.0428   -0.3892    2.4386 C   0  0  0  0  0  0  0  0  0  0  0  0
    1.4596   -4.4503   -2.9195 H   0  0  0  0  0  0  0  0  0  0  0  0
    1.0433   -3.9115   -1.2851 H   0  0  0  0  0  0  0  0  0  0  0  0
    0.4754   -2.9965   -2.6903 H   0  0  0  0  0  0  0  0  0  0  0  0
    2.8155   -2.3575   -3.2438 H   0  0  0  0  0  0  0  0  0  0  0  0
    3.4036   -3.3121   -1.8432 H   0  0  0  0  0  0  0  0  0  0  0  0
    3.1199    0.4469    0.2919 H   0  0  0  0  0  0  0  0  0  0  0  0
    2.4461   -0.5219    1.6229 H   0  0  0  0  0  0  0  0  0  0  0  0
    0.1698    3.9570    1.0627 H   0  0  0  0  0  0  0  0  0  0  0  0
    1.4253    3.6545    2.2836 H   0  0  0  0  0  0  0  0  0  0  0  0
    1.9569    5.7076    0.9464 H   0  0  0  0  0  0  0  0  0  0  0  0
    3.1758    4.4514    0.6809 H   0  0  0  0  0  0  0  0  0  0  0  0
    1.9298    4.7453   -0.5384 H   0  0  0  0  0  0  0  0  0  0  0  0
   -1.8583   -2.4730   -1.5633 H   0  0  0  0  0  0  0  0  0  0  0  0
   -2.4251   -1.0580   -2.4996 H   0  0  0  0  0  0  0  0  0  0  0  0
   -3.5944   -2.3021   -1.9658 H   0  0  0  0  0  0  0  0  0  0  0  0
   -2.1012   -0.6124    2.9399 H   0  0  0  0  0  0  0  0  0  0  0  0
   -3.5133   -1.3056    2.0866 H   0  0  0  0  0  0  0  0  0  0  0  0
   -3.7065    0.1602    3.1009 H   0  0  0  0  0  0  0  0  0  0  0  0
  1  2  1  0  0  0  0
  2  3  1  0  0  0  0
  3  4  1  0  0  0  0
  4  5  2  0  0  0  0
  4  6  1  0  0  0  0
  6  7  1  0  0  0  0
  7  8  1  0  0  0  0
  7  9  1  0  0  0  0
  9 10  2  0  0  0  0
  9 11  4  0  0  0  0
 11 12  1  0  0  0  0
 12 13  1  0  0  0  0
  7 14  1  0  0  0  0
 14 15  1  0  0  0  0
 15 16  2  0  0  0  0
 15 17  1  0  0  0  0
 17 18  1  0  0  0  0
 15 19  2  0  0  0  0
 19 20  1  0  0  0  0
  1 21  1  0  0  0  0
  1 22  1  0  0  0  0
  1 23  1  0  0  0  0
  2 24  1  0  0  0  0
  2 25  1  0  0  0  0
  6 26  1  0  0  0  0
  6 27  1  0  0  0  0
 12 28  1  0  0  0  0
 12 29  1  0  0  0  0
 13 30  1  0  0  0  0
 13 31  1  0  0  0  0
 13 32  1  0  0  0  0
 18 33  1  0  0  0  0
 18 34  1  0  0  0  0
 18 35  1  0  0  0  0
 20 36  1  0  0  0  0
 20 37  1  0  0  0  0
 20 38  1  0  0  0  0
M  END
