 xtb: 6.7.1 (edcfbbe)
          04032520393D

 16 16  0     0  0            999 V2000
   -1.8528   -1.4099   -0.0002 C   0  0  0  0  0  0  0  0  0  0  0  0
   -0.5280   -0.7125    0.0002 C   0  0  0  0  0  0  0  0  0  0  0  0
    0.6708   -1.4049    0.0002 C   0  0  0  0  0  0  0  0  0  0  0  0
    1.8873   -0.7410   -0.0000 C   0  0  0  0  0  0  0  0  0  0  0  0
    1.9128    0.6409   -0.0001 C   0  0  0  0  0  0  0  0  0  0  0  0
    0.7265    1.3548   -0.0000 C   0  0  0  0  0  0  0  0  0  0  0  0
   -0.4903    0.6876    0.0001 C   0  0  0  0  0  0  0  0  0  0  0  0
   -1.6802    1.3532    0.0000 O   0  0  0  0  0  0  0  0  0  0  0  0
   -2.4247   -1.1228   -0.8814 H   0  0  0  0  0  0  0  0  0  0  0  0
   -1.7230   -2.4880    0.0077 H   0  0  0  0  0  0  0  0  0  0  0  0
   -2.4316   -1.1104    0.8723 H   0  0  0  0  0  0  0  0  0  0  0  0
    0.6502   -2.4849   -0.0001 H   0  0  0  0  0  0  0  0  0  0  0  0
    2.8090   -1.3024   -0.0003 H   0  0  0  0  0  0  0  0  0  0  0  0
    2.8539    1.1697   -0.0004 H   0  0  0  0  0  0  0  0  0  0  0  0
    0.7466    2.4355   -0.0003 H   0  0  0  0  0  0  0  0  0  0  0  0
   -1.5316    2.3102    0.0003 H   0  0  0  0  0  0  0  0  0  0  0  0
  1  2  1  0  0  0  0
  2  3  4  0  0  0  0
  3  4  4  0  0  0  0
  4  5  4  0  0  0  0
  5  6  4  0  0  0  0
  2  7  4  0  0  0  0
  6  7  4  0  0  0  0
  7  8  1  0  0  0  0
  1  9  1  0  0  0  0
  1 10  1  0  0  0  0
  1 11  1  0  0  0  0
  3 12  1  0  0  0  0
  4 13  1  0  0  0  0
  5 14  1  0  0  0  0
  6 15  1  0  0  0  0
  8 16  1  0  0  0  0
M  END
