 xtb: 6.7.1 (edcfbbe)
          04092505213D

 41 40  0     0  0            999 V2000
    3.7913    1.2515   -2.1945 C   0  0  0  0  0  0  0  0  0  0  0  0
    4.3057    1.1877   -0.7704 C   0  0  0  0  0  0  0  0  0  0  0  0
    3.7708    0.0601   -0.0632 O   0  0  0  0  0  0  0  0  0  0  0  0
    2.2395   -0.0271    0.3665 P   0  0  0  0  0  0  0  0  0  0  0  0
    1.5320    1.6797    1.0270 S   0  0  0  0  0  0  0  0  0  0  0  0
    2.2427   -1.2384    1.3817 O   0  0  0  0  0  0  0  0  0  0  0  0
    2.3415   -1.0356    2.8087 C   0  0  0  0  0  0  0  0  0  0  0  0
    3.7222   -0.5619    3.2094 C   0  0  0  0  0  0  0  0  0  0  0  0
    1.3160   -0.9599   -1.2999 S   0  0  0  0  0  0  0  0  0  0  0  0
    0.0561   -1.9633   -0.4533 C   0  0  0  0  0  0  0  0  0  0  0  0
   -0.9936   -1.0368    0.6874 S   0  0  0  0  0  0  0  0  0  0  0  0
   -2.1613    0.0671   -0.7284 P   0  0  0  0  0  0  0  0  0  0  0  0
   -2.0076   -0.5761   -2.5710 S   0  0  0  0  0  0  0  0  0  0  0  0
   -1.7908    1.5883   -0.5804 O   0  0  0  0  0  0  0  0  0  0  0  0
   -2.3258    2.4926    0.4203 C   0  0  0  0  0  0  0  0  0  0  0  0
   -2.0524    2.0352    1.8364 C   0  0  0  0  0  0  0  0  0  0  0  0
   -3.6293    0.0101   -0.1230 O   0  0  0  0  0  0  0  0  0  0  0  0
   -4.4108   -1.2000   -0.1928 C   0  0  0  0  0  0  0  0  0  0  0  0
   -5.8552   -0.8364    0.0853 C   0  0  0  0  0  0  0  0  0  0  0  0
    3.9990    0.3199   -2.7149 H   0  0  0  0  0  0  0  0  0  0  0  0
    2.7120    1.4121   -2.1925 H   0  0  0  0  0  0  0  0  0  0  0  0
    4.2681    2.0738   -2.7182 H   0  0  0  0  0  0  0  0  0  0  0  0
    4.0402    2.0996   -0.2243 H   0  0  0  0  0  0  0  0  0  0  0  0
    5.3853    1.0356   -0.7375 H   0  0  0  0  0  0  0  0  0  0  0  0
    1.5784   -0.3108    3.1093 H   0  0  0  0  0  0  0  0  0  0  0  0
    2.1083   -2.0149    3.2279 H   0  0  0  0  0  0  0  0  0  0  0  0
    3.7872   -0.5157    4.2919 H   0  0  0  0  0  0  0  0  0  0  0  0
    4.4787   -1.2425    2.8280 H   0  0  0  0  0  0  0  0  0  0  0  0
    3.9047    0.4312    2.8007 H   0  0  0  0  0  0  0  0  0  0  0  0
    0.5422   -2.7394    0.1315 H   0  0  0  0  0  0  0  0  0  0  0  0
   -0.5529   -2.3829   -1.2545 H   0  0  0  0  0  0  0  0  0  0  0  0
   -1.8158    3.4317    0.2008 H   0  0  0  0  0  0  0  0  0  0  0  0
   -3.3975    2.5928    0.2390 H   0  0  0  0  0  0  0  0  0  0  0  0
   -2.5229    1.0717    2.0233 H   0  0  0  0  0  0  0  0  0  0  0  0
   -0.9816    1.9450    2.0026 H   0  0  0  0  0  0  0  0  0  0  0  0
   -2.4561    2.7686    2.5272 H   0  0  0  0  0  0  0  0  0  0  0  0
   -4.2905   -1.6343   -1.1908 H   0  0  0  0  0  0  0  0  0  0  0  0
   -4.0231   -1.8992    0.5531 H   0  0  0  0  0  0  0  0  0  0  0  0
   -5.9431   -0.3817    1.0677 H   0  0  0  0  0  0  0  0  0  0  0  0
   -6.2140   -0.1345   -0.6621 H   0  0  0  0  0  0  0  0  0  0  0  0
   -6.4606   -1.7361    0.0501 H   0  0  0  0  0  0  0  0  0  0  0  0
  1  2  1  0  0  0  0
  2  3  1  0  0  0  0
  3  4  2  0  0  0  0
  4  5  2  0  0  0  0
  4  6  2  0  0  0  0
  6  7  1  0  0  0  0
  7  8  1  0  0  0  0
  4  9  1  0  0  0  0
  9 10  1  0  0  0  0
 10 11  1  0  0  0  0
 11 12  1  0  0  0  0
 12 13  2  0  0  0  0
 12 14  2  0  0  0  0
 14 15  1  0  0  0  0
 15 16  1  0  0  0  0
 12 17  2  0  0  0  0
 17 18  1  0  0  0  0
 18 19  1  0  0  0  0
  1 20  1  0  0  0  0
  1 21  1  0  0  0  0
  1 22  1  0  0  0  0
  2 23  1  0  0  0  0
  2 24  1  0  0  0  0
  7 25  1  0  0  0  0
  7 26  1  0  0  0  0
  8 27  1  0  0  0  0
  8 28  1  0  0  0  0
  8 29  1  0  0  0  0
 10 30  1  0  0  0  0
 10 31  1  0  0  0  0
 15 32  1  0  0  0  0
 15 33  1  0  0  0  0
 16 34  1  0  0  0  0
 16 35  1  0  0  0  0
 16 36  1  0  0  0  0
 18 37  1  0  0  0  0
 18 38  1  0  0  0  0
 19 39  1  0  0  0  0
 19 40  1  0  0  0  0
 19 41  1  0  0  0  0
M  END
