17
CONF1
C 1.8643392944 -1.4294593035 -0.0002620930
C 0.5602114999 -0.7010196098 0.0002544111
C -0.6475911294 -1.3882140785 0.0002070689
C -1.8350996588 -0.6770154234 -0.0000513747
N -1.8880992278 0.6460879909 -0.0002235969
C -0.7370201903 1.3012885640 -0.0000204864
C 0.5142957059 0.6986277912 0.0002218446
C 1.7633326299 1.5195929942 0.0000369597
H 2.4499226872 -1.1553859748 0.8757331317
H 1.7049664125 -2.5039925832 0.0044559248
H 2.4445932250 -1.1626176878 -0.8820752805
H -0.6631278941 -2.4674767537 0.0004829767
H -2.7917583094 -1.1823230548 0.0001873553
H -0.8246834647 2.3808010303 -0.0003623696
H 1.5232318748 2.5791199692 0.0013001427
H 2.3652496125 1.2948160194 0.8790695869
H 2.3639984402 1.2965970011 -0.8802880017
17
CONF2
C 1.8502400991 -1.4698537787 -0.0002926170
C 0.5697232599 -0.6941584569 0.0004107248
C -0.6403153854 -1.3830895144 0.0002091911
C -1.8294175261 -0.6788541283 -0.0001133180
N -1.8850458851 0.6453538321 -0.0001897901
C -0.7354827266 1.3001411329 0.0000230365
C 0.5213551008 0.7034722230 0.0002351404
C 1.7539543804 1.5539380567 0.0000070757
H 2.7191911991 -0.8222476947 0.0136073575
H 1.8839071539 -2.1225057592 0.8703360062
H 1.8959068077 -2.0999759078 -0.8869406432
H -0.6483059703 -2.4624335564 0.0003557697
H -2.7847153989 -1.1866105256 -0.0002595761
H -0.8254774657 2.3795513263 -0.0001279902
H 1.4827639321 2.6062296836 -0.0005237924
H 2.3579590743 1.3529176764 0.8830844636
H 2.3582935814 1.3519281335 -0.8826050539
