 xtb: 6.7.1 (edcfbbe)
          04092507313D

 38 37  0     0  0            999 V2000
    2.6752   -4.4183    0.6932 C   0  0  0  0  0  0  0  0  0  0  0  0
    2.7786   -3.5974   -0.5821 C   0  0  0  0  0  0  0  0  0  0  0  0
    2.9221   -2.1947   -0.2801 O   0  0  0  0  0  0  0  0  0  0  0  0
    1.8383   -1.4767   -0.0914 C   0  0  0  0  0  0  0  0  0  0  0  0
    0.7059   -1.9114   -0.1864 O   0  0  0  0  0  0  0  0  0  0  0  0
    2.1657   -0.0446    0.2599 C   0  0  0  0  0  0  0  0  0  0  0  0
    0.9487    0.8453    0.0733 C   0  0  0  0  0  0  0  0  0  0  0  0
    0.5315    0.7140   -0.9374 H   0  0  0  0  0  0  0  0  0  0  0  0
    1.2641    2.3213    0.2554 C   0  0  0  0  0  0  0  0  0  0  0  0
    2.3835    2.7473    0.4177 O   0  0  0  0  0  0  0  0  0  0  0  0
    0.1723    3.0518    0.1945 O   0  0  0  0  0  0  0  0  0  0  0  0
    0.3038    4.4840    0.3074 C   0  0  0  0  0  0  0  0  0  0  0  0
    0.5794    5.1112   -1.0494 C   0  0  0  0  0  0  0  0  0  0  0  0
   -0.4041    0.3919    1.2147 S   0  0  0  0  0  0  0  0  0  0  0  0
   -1.6669   -0.6395   -0.1621 P   0  0  0  0  0  0  0  0  0  0  0  0
   -1.2703   -0.4689   -2.0722 S   0  0  0  0  0  0  0  0  0  0  0  0
   -1.9228   -2.1123    0.3384 O   0  0  0  0  0  0  0  0  0  0  0  0
   -2.3200   -2.3995    1.6929 C   0  0  0  0  0  0  0  0  0  0  0  0
   -3.0960    0.0040    0.2123 O   0  0  0  0  0  0  0  0  0  0  0  0
   -3.3806    1.3698   -0.0958 C   0  0  0  0  0  0  0  0  0  0  0  0
    2.6406   -5.4723    0.4382 H   0  0  0  0  0  0  0  0  0  0  0  0
    3.5357   -4.2305    1.3293 H   0  0  0  0  0  0  0  0  0  0  0  0
    1.7686   -4.1569    1.2340 H   0  0  0  0  0  0  0  0  0  0  0  0
    1.8895   -3.7308   -1.2054 H   0  0  0  0  0  0  0  0  0  0  0  0
    3.6783   -3.8457   -1.1448 H   0  0  0  0  0  0  0  0  0  0  0  0
    2.9871    0.3049   -0.3673 H   0  0  0  0  0  0  0  0  0  0  0  0
    2.5061   -0.0106    1.2978 H   0  0  0  0  0  0  0  0  0  0  0  0
   -0.6528    4.8139    0.7121 H   0  0  0  0  0  0  0  0  0  0  0  0
    1.1133    4.7029    1.0089 H   0  0  0  0  0  0  0  0  0  0  0  0
   -0.1953    4.8296   -1.7574 H   0  0  0  0  0  0  0  0  0  0  0  0
    0.5964    6.1911   -0.9473 H   0  0  0  0  0  0  0  0  0  0  0  0
    1.5426    4.7771   -1.4282 H   0  0  0  0  0  0  0  0  0  0  0  0
   -3.3143   -1.9980    1.8802 H   0  0  0  0  0  0  0  0  0  0  0  0
   -1.6033   -1.9664    2.3910 H   0  0  0  0  0  0  0  0  0  0  0  0
   -2.3190   -3.4842    1.7630 H   0  0  0  0  0  0  0  0  0  0  0  0
   -2.7420    2.0267    0.4961 H   0  0  0  0  0  0  0  0  0  0  0  0
   -4.4266    1.5169    0.1595 H   0  0  0  0  0  0  0  0  0  0  0  0
   -3.2149    1.5553   -1.1584 H   0  0  0  0  0  0  0  0  0  0  0  0
  1  2  1  0  0  0  0
  2  3  1  0  0  0  0
  3  4  4  0  0  0  0
  4  5  2  0  0  0  0
  4  6  1  0  0  0  0
  6  7  1  0  0  0  0
  7  8  1  0  0  0  0
  7  9  1  0  0  0  0
  9 10  2  0  0  0  0
  9 11  1  0  0  0  0
 11 12  1  0  0  0  0
 12 13  1  0  0  0  0
  7 14  1  0  0  0  0
 14 15  1  0  0  0  0
 15 16  2  0  0  0  0
 15 17  2  0  0  0  0
 17 18  1  0  0  0  0
 15 19  1  0  0  0  0
 19 20  1  0  0  0  0
  1 21  1  0  0  0  0
  1 22  1  0  0  0  0
  1 23  1  0  0  0  0
  2 24  1  0  0  0  0
  2 25  1  0  0  0  0
  6 26  1  0  0  0  0
  6 27  1  0  0  0  0
 12 28  1  0  0  0  0
 12 29  1  0  0  0  0
 13 30  1  0  0  0  0
 13 31  1  0  0  0  0
 13 32  1  0  0  0  0
 18 33  1  0  0  0  0
 18 34  1  0  0  0  0
 18 35  1  0  0  0  0
 20 36  1  0  0  0  0
 20 37  1  0  0  0  0
 20 38  1  0  0  0  0
M  END
