41
 xtb: 6.7.1 (edcfbbe)
C            3.44850402810998        1.73782447543346        2.26800814830003
C            2.26562088719174        1.69356906781048        1.33239992076570
O            1.55651556485555        0.40430719795445        1.38306498762628
P            2.20872806363398       -0.98578899402599        0.92077605171565
S            2.92720231364558       -2.13278196668815        2.32227095856416
O            3.21285955540904       -0.49422458829452       -0.23491572960173
C            4.39579280314456       -1.26305677820556       -0.64378367709741
C            4.03407226002620       -2.41107510882652       -1.55295003702347
S            0.59534443162800       -1.98370261102804       -0.00195307657416
C            0.32454214346739       -1.00925811995950       -1.54253021294799
S           -0.31167519365658        0.70695768783775       -1.39725252979955
P           -2.18464682954867        0.36636910920537       -0.47445014291040
S           -3.14070054680209       -1.23415208385458       -1.03720063452668
O           -2.90905116184233        1.78488884710099       -0.72720651976994
C           -3.55508468179622        2.07988754112919       -2.01436684253670
C           -4.16726282024235        3.45121969899132       -1.89812721394006
O           -1.82332394441766        0.49657992886841        1.08373521882947
C           -2.68161392522279       -0.07835583814642        2.13145033409892
C           -3.93428172053980        0.73671055078351        2.33684112194085
H            3.86598211043397        2.75007223430496        2.25048187606071
H            3.14856471194800        1.50573699238314        3.29380585152696
H            4.23446935629037        1.04202116495897        1.95897862456252
H            2.55469852785591        1.88591239066502        0.29631178044685
H            1.49644374751115        2.41141845892913        1.62430619357175
H            5.01611902244195       -0.52383326594194       -1.15457541255448
H            4.91288669317886       -1.60125423269903        0.25910929263751
H            4.95876052991743       -2.87993464522490       -1.90513965702690
H            3.44620096817140       -3.16998731331693       -1.02893912805792
H            3.47326359595632       -2.06066036727303       -2.42440362458595
H           -0.38362674624709       -1.60506071670188       -2.12602516782040
H            1.26363603017420       -0.92620471587237       -2.09644655668377
H           -2.79491705194683        2.03986652622769       -2.80174751570748
H           -4.31013260761504        1.31063987382820       -2.20172725573184
H           -3.40272249914474        4.20757749837916       -1.70021341828866
H           -4.66274132902317        3.69868392095083       -2.84183097125572
H           -4.91328494672498        3.47744610631406       -1.09881859839764
H           -2.90358169412409       -1.11554093978762        1.86245989885161
H           -2.04211044247628       -0.06872089592159        3.01620278432822
H           -3.69086454801667        1.78159875152774        2.54937681767665
H           -4.59142573648111        0.69379490244568        1.46300306419288
H           -4.48088537724524        0.32793524994927        3.19305670803644
