 xtb: 6.7.1 (edcfbbe)
          04092505213D

 41 40  0     0  0            999 V2000
    4.7038   -2.2053   -0.0455 C   0  0  0  0  0  0  0  0  0  0  0  0
    4.4830   -0.7565    0.3399 C   0  0  0  0  0  0  0  0  0  0  0  0
    3.8076   -0.0567   -0.7404 O   0  0  0  0  0  0  0  0  0  0  0  0
    2.3289    0.4675   -0.6410 P   0  0  0  0  0  0  0  0  0  0  0  0
    1.7422    1.2637   -2.3252 S   0  0  0  0  0  0  0  0  0  0  0  0
    2.4355    1.4376    0.6186 O   0  0  0  0  0  0  0  0  0  0  0  0
    1.3482    2.2658    1.0648 C   0  0  0  0  0  0  0  0  0  0  0  0
    1.9007    3.2381    2.0861 C   0  0  0  0  0  0  0  0  0  0  0  0
    1.1907   -1.1769    0.0947 S   0  0  0  0  0  0  0  0  0  0  0  0
    0.0396   -1.4294   -1.2976 C   0  0  0  0  0  0  0  0  0  0  0  0
   -1.5938   -1.9128   -0.7202 S   0  0  0  0  0  0  0  0  0  0  0  0
   -2.1122   -0.0706    0.2262 P   0  0  0  0  0  0  0  0  0  0  0  0
   -1.6266    1.5660   -0.7349 S   0  0  0  0  0  0  0  0  0  0  0  0
   -1.4110   -0.0637    1.6385 O   0  0  0  0  0  0  0  0  0  0  0  0
   -1.5849   -1.1147    2.6236 C   0  0  0  0  0  0  0  0  0  0  0  0
   -2.5675   -0.6787    3.6906 C   0  0  0  0  0  0  0  0  0  0  0  0
   -3.6347   -0.3005    0.6102 O   0  0  0  0  0  0  0  0  0  0  0  0
   -4.6554   -0.7742   -0.2888 C   0  0  0  0  0  0  0  0  0  0  0  0
   -4.7459    0.0462   -1.5580 C   0  0  0  0  0  0  0  0  0  0  0  0
    5.2280   -2.2596   -0.9954 H   0  0  0  0  0  0  0  0  0  0  0  0
    5.2998   -2.6889    0.7218 H   0  0  0  0  0  0  0  0  0  0  0  0
    3.7527   -2.7238   -0.1368 H   0  0  0  0  0  0  0  0  0  0  0  0
    5.4287   -0.2283    0.4687 H   0  0  0  0  0  0  0  0  0  0  0  0
    3.8873   -0.6713    1.2511 H   0  0  0  0  0  0  0  0  0  0  0  0
    0.9203    2.7845    0.2004 H   0  0  0  0  0  0  0  0  0  0  0  0
    0.5735    1.6252    1.4983 H   0  0  0  0  0  0  0  0  0  0  0  0
    2.6715    3.8540    1.6314 H   0  0  0  0  0  0  0  0  0  0  0  0
    1.0957    3.8734    2.4405 H   0  0  0  0  0  0  0  0  0  0  0  0
    2.3292    2.6943    2.9228 H   0  0  0  0  0  0  0  0  0  0  0  0
    0.4006   -2.2461   -1.9177 H   0  0  0  0  0  0  0  0  0  0  0  0
   -0.0216   -0.4965   -1.8667 H   0  0  0  0  0  0  0  0  0  0  0  0
   -1.9219   -2.0239    2.1186 H   0  0  0  0  0  0  0  0  0  0  0  0
   -0.5866   -1.2755    3.0352 H   0  0  0  0  0  0  0  0  0  0  0  0
   -2.2270    0.2403    4.1593 H   0  0  0  0  0  0  0  0  0  0  0  0
   -3.5459   -0.5040    3.2508 H   0  0  0  0  0  0  0  0  0  0  0  0
   -2.6445   -1.4582    4.4420 H   0  0  0  0  0  0  0  0  0  0  0  0
   -4.4452   -1.8220   -0.5200 H   0  0  0  0  0  0  0  0  0  0  0  0
   -5.5714   -0.6986    0.2996 H   0  0  0  0  0  0  0  0  0  0  0  0
   -3.8271   -0.0502   -2.1354 H   0  0  0  0  0  0  0  0  0  0  0  0
   -5.5784   -0.3061   -2.1583 H   0  0  0  0  0  0  0  0  0  0  0  0
   -4.8910    1.0979   -1.3217 H   0  0  0  0  0  0  0  0  0  0  0  0
  1  2  1  0  0  0  0
  2  3  1  0  0  0  0
  3  4  2  0  0  0  0
  4  5  2  0  0  0  0
  4  6  2  0  0  0  0
  6  7  1  0  0  0  0
  7  8  1  0  0  0  0
  4  9  1  0  0  0  0
  9 10  1  0  0  0  0
 10 11  1  0  0  0  0
 11 12  1  0  0  0  0
 12 13  2  0  0  0  0
 12 14  2  0  0  0  0
 14 15  1  0  0  0  0
 15 16  1  0  0  0  0
 12 17  2  0  0  0  0
 17 18  1  0  0  0  0
 18 19  1  0  0  0  0
  1 20  1  0  0  0  0
  1 21  1  0  0  0  0
  1 22  1  0  0  0  0
  2 23  1  0  0  0  0
  2 24  1  0  0  0  0
  7 25  1  0  0  0  0
  7 26  1  0  0  0  0
  8 27  1  0  0  0  0
  8 28  1  0  0  0  0
  8 29  1  0  0  0  0
 10 30  1  0  0  0  0
 10 31  1  0  0  0  0
 15 32  1  0  0  0  0
 15 33  1  0  0  0  0
 16 34  1  0  0  0  0
 16 35  1  0  0  0  0
 16 36  1  0  0  0  0
 18 37  1  0  0  0  0
 18 38  1  0  0  0  0
 19 39  1  0  0  0  0
 19 40  1  0  0  0  0
 19 41  1  0  0  0  0
M  END
