 xtb: 6.7.1 (edcfbbe)
          04092507313D

 38 37  0     0  0            999 V2000
    3.0259   -4.0442    0.0036 C   0  0  0  0  0  0  0  0  0  0  0  0
    2.7319   -2.6183    0.4242 C   0  0  0  0  0  0  0  0  0  0  0  0
    2.2035   -1.9183   -0.7186 O   0  0  0  0  0  0  0  0  0  0  0  0
    2.0857   -0.6142   -0.6556 C   0  0  0  0  0  0  0  0  0  0  0  0
    2.3799    0.0663    0.3084 O   0  0  0  0  0  0  0  0  0  0  0  0
    1.5713   -0.0204   -1.9540 C   0  0  0  0  0  0  0  0  0  0  0  0
    0.3791    0.9071   -1.6989 C   0  0  0  0  0  0  0  0  0  0  0  0
    0.2515    1.5877   -2.5437 H   0  0  0  0  0  0  0  0  0  0  0  0
    0.5724    1.7176   -0.4309 C   0  0  0  0  0  0  0  0  0  0  0  0
   -0.1245    1.5548    0.5556 O   0  0  0  0  0  0  0  0  0  0  0  0
    1.5098    2.6091   -0.5583 O   0  0  0  0  0  0  0  0  0  0  0  0
    1.8538    3.4145    0.5903 C   0  0  0  0  0  0  0  0  0  0  0  0
    0.8724    4.5596    0.7759 C   0  0  0  0  0  0  0  0  0  0  0  0
   -1.1954   -0.0003   -1.5789 S   0  0  0  0  0  0  0  0  0  0  0  0
   -1.6061   -0.3480    0.4861 P   0  0  0  0  0  0  0  0  0  0  0  0
   -0.3251   -1.1460    1.7393 S   0  0  0  0  0  0  0  0  0  0  0  0
   -2.5157    0.8152    1.0658 O   0  0  0  0  0  0  0  0  0  0  0  0
   -3.7568    1.2041    0.4476 C   0  0  0  0  0  0  0  0  0  0  0  0
   -2.7895   -1.4161    0.1972 O   0  0  0  0  0  0  0  0  0  0  0  0
   -2.5166   -2.7614   -0.1928 C   0  0  0  0  0  0  0  0  0  0  0  0
    2.1149   -4.5225   -0.3423 H   0  0  0  0  0  0  0  0  0  0  0  0
    3.7579   -4.0541   -0.7986 H   0  0  0  0  0  0  0  0  0  0  0  0
    3.4162   -4.5920    0.8545 H   0  0  0  0  0  0  0  0  0  0  0  0
    3.6304   -2.0929    0.7628 H   0  0  0  0  0  0  0  0  0  0  0  0
    1.9858   -2.5699    1.2246 H   0  0  0  0  0  0  0  0  0  0  0  0
    1.2911   -0.8180   -2.6405 H   0  0  0  0  0  0  0  0  0  0  0  0
    2.3854    0.5690   -2.3814 H   0  0  0  0  0  0  0  0  0  0  0  0
    1.8758    2.7621    1.4678 H   0  0  0  0  0  0  0  0  0  0  0  0
    2.8563    3.7761    0.3635 H   0  0  0  0  0  0  0  0  0  0  0  0
    0.8169    5.1563   -0.1304 H   0  0  0  0  0  0  0  0  0  0  0  0
   -0.1165    4.1730    1.0126 H   0  0  0  0  0  0  0  0  0  0  0  0
    1.2084    5.1844    1.5967 H   0  0  0  0  0  0  0  0  0  0  0  0
   -4.0423    2.1265    0.9471 H   0  0  0  0  0  0  0  0  0  0  0  0
   -4.5047    0.4289    0.6042 H   0  0  0  0  0  0  0  0  0  0  0  0
   -3.6124    1.3701   -0.6202 H   0  0  0  0  0  0  0  0  0  0  0  0
   -1.7189   -3.1743    0.4280 H   0  0  0  0  0  0  0  0  0  0  0  0
   -2.2272   -2.7928   -1.2432 H   0  0  0  0  0  0  0  0  0  0  0  0
   -3.4424   -3.3084   -0.0334 H   0  0  0  0  0  0  0  0  0  0  0  0
  1  2  1  0  0  0  0
  2  3  1  0  0  0  0
  3  4  4  0  0  0  0
  4  5  2  0  0  0  0
  4  6  1  0  0  0  0
  6  7  1  0  0  0  0
  7  8  1  0  0  0  0
  7  9  1  0  0  0  0
  9 10  2  0  0  0  0
  9 11  4  0  0  0  0
 11 12  1  0  0  0  0
 12 13  1  0  0  0  0
  7 14  1  0  0  0  0
 14 15  1  0  0  0  0
 15 16  2  0  0  0  0
 15 17  2  0  0  0  0
 17 18  1  0  0  0  0
 15 19  1  0  0  0  0
 19 20  1  0  0  0  0
  1 21  1  0  0  0  0
  1 22  1  0  0  0  0
  1 23  1  0  0  0  0
  2 24  1  0  0  0  0
  2 25  1  0  0  0  0
  6 26  1  0  0  0  0
  6 27  1  0  0  0  0
 12 28  1  0  0  0  0
 12 29  1  0  0  0  0
 13 30  1  0  0  0  0
 13 31  1  0  0  0  0
 13 32  1  0  0  0  0
 18 33  1  0  0  0  0
 18 34  1  0  0  0  0
 18 35  1  0  0  0  0
 20 36  1  0  0  0  0
 20 37  1  0  0  0  0
 20 38  1  0  0  0  0
M  END
