 xtb: 6.7.1 (edcfbbe)
          04092505213D

 41 40  0     0  0            999 V2000
    5.2227   -2.3240   -1.0432 C   0  0  0  0  0  0  0  0  0  0  0  0
    4.1647   -1.3117   -1.4337 C   0  0  0  0  0  0  0  0  0  0  0  0
    3.1390   -1.3276   -0.4203 O   0  0  0  0  0  0  0  0  0  0  0  0
    2.1611   -0.0959   -0.1881 P   0  0  0  0  0  0  0  0  0  0  0  0
    3.0563    1.6503   -0.1137 S   0  0  0  0  0  0  0  0  0  0  0  0
    1.3919   -0.5578    1.1097 O   0  0  0  0  0  0  0  0  0  0  0  0
    1.8133   -0.1916    2.4460 C   0  0  0  0  0  0  0  0  0  0  0  0
    0.6031    0.2694    3.2317 C   0  0  0  0  0  0  0  0  0  0  0  0
    0.6951   -0.3483   -1.6827 S   0  0  0  0  0  0  0  0  0  0  0  0
    0.0292    1.3376   -1.6167 C   0  0  0  0  0  0  0  0  0  0  0  0
   -0.7945    1.7236   -0.0544 S   0  0  0  0  0  0  0  0  0  0  0  0
   -2.2988    0.2344   -0.1999 P   0  0  0  0  0  0  0  0  0  0  0  0
   -3.0005   -0.1203   -1.9869 S   0  0  0  0  0  0  0  0  0  0  0  0
   -3.4435    0.7095    0.7832 O   0  0  0  0  0  0  0  0  0  0  0  0
   -3.2753    0.8897    2.2121 C   0  0  0  0  0  0  0  0  0  0  0  0
   -2.9948    2.3402    2.5491 C   0  0  0  0  0  0  0  0  0  0  0  0
   -1.5765   -0.9864    0.5392 O   0  0  0  0  0  0  0  0  0  0  0  0
   -1.6822   -2.3459    0.0850 C   0  0  0  0  0  0  0  0  0  0  0  0
   -2.9929   -2.9639    0.5279 C   0  0  0  0  0  0  0  0  0  0  0  0
    4.7757   -3.3096   -0.9512 H   0  0  0  0  0  0  0  0  0  0  0  0
    5.9920   -2.3471   -1.8079 H   0  0  0  0  0  0  0  0  0  0  0  0
    5.6701   -2.0491   -0.0922 H   0  0  0  0  0  0  0  0  0  0  0  0
    3.7006   -1.5660   -2.3900 H   0  0  0  0  0  0  0  0  0  0  0  0
    4.5804   -0.3000   -1.4934 H   0  0  0  0  0  0  0  0  0  0  0  0
    2.2646   -1.0826    2.8869 H   0  0  0  0  0  0  0  0  0  0  0  0
    2.5647    0.6020    2.3757 H   0  0  0  0  0  0  0  0  0  0  0  0
    0.9025    0.4889    4.2513 H   0  0  0  0  0  0  0  0  0  0  0  0
    0.1845    1.1654    2.7799 H   0  0  0  0  0  0  0  0  0  0  0  0
   -0.1517   -0.5120    3.2368 H   0  0  0  0  0  0  0  0  0  0  0  0
   -0.6859    1.4164   -2.4350 H   0  0  0  0  0  0  0  0  0  0  0  0
    0.8423    2.0554   -1.7238 H   0  0  0  0  0  0  0  0  0  0  0  0
   -4.2279    0.5651    2.6343 H   0  0  0  0  0  0  0  0  0  0  0  0
   -2.4720    0.2372    2.5598 H   0  0  0  0  0  0  0  0  0  0  0  0
   -3.7860    2.9735    2.1578 H   0  0  0  0  0  0  0  0  0  0  0  0
   -2.9466    2.4500    3.6279 H   0  0  0  0  0  0  0  0  0  0  0  0
   -2.0492    2.6597    2.1153 H   0  0  0  0  0  0  0  0  0  0  0  0
   -1.5955   -2.3623   -1.0063 H   0  0  0  0  0  0  0  0  0  0  0  0
   -0.8192   -2.8463    0.5276 H   0  0  0  0  0  0  0  0  0  0  0  0
   -3.0354   -3.9958    0.1942 H   0  0  0  0  0  0  0  0  0  0  0  0
   -3.0838   -2.9304    1.6103 H   0  0  0  0  0  0  0  0  0  0  0  0
   -3.8228   -2.4140    0.0849 H   0  0  0  0  0  0  0  0  0  0  0  0
  1  2  1  0  0  0  0
  2  3  1  0  0  0  0
  3  4  2  0  0  0  0
  4  5  2  0  0  0  0
  4  6  2  0  0  0  0
  6  7  1  0  0  0  0
  7  8  1  0  0  0  0
  4  9  1  0  0  0  0
  9 10  1  0  0  0  0
 10 11  1  0  0  0  0
 11 12  1  0  0  0  0
 12 13  2  0  0  0  0
 12 14  2  0  0  0  0
 14 15  1  0  0  0  0
 15 16  1  0  0  0  0
 12 17  1  0  0  0  0
 17 18  1  0  0  0  0
 18 19  1  0  0  0  0
  1 20  1  0  0  0  0
  1 21  1  0  0  0  0
  1 22  1  0  0  0  0
  2 23  1  0  0  0  0
  2 24  1  0  0  0  0
  7 25  1  0  0  0  0
  7 26  1  0  0  0  0
  8 27  1  0  0  0  0
  8 28  1  0  0  0  0
  8 29  1  0  0  0  0
 10 30  1  0  0  0  0
 10 31  1  0  0  0  0
 15 32  1  0  0  0  0
 15 33  1  0  0  0  0
 16 34  1  0  0  0  0
 16 35  1  0  0  0  0
 16 36  1  0  0  0  0
 18 37  1  0  0  0  0
 18 38  1  0  0  0  0
 19 39  1  0  0  0  0
 19 40  1  0  0  0  0
 19 41  1  0  0  0  0
M  END
