 xtb: 6.7.1 (edcfbbe)
          04092505213D

 41 40  0     0  0            999 V2000
    4.8104    1.6063    0.6859 C   0  0  0  0  0  0  0  0  0  0  0  0
    4.3466    1.0615   -0.6483 C   0  0  0  0  0  0  0  0  0  0  0  0
    3.6183   -0.1755   -0.5254 O   0  0  0  0  0  0  0  0  0  0  0  0
    2.3522   -0.4035    0.4055 P   0  0  0  0  0  0  0  0  0  0  0  0
    2.6286   -0.6593    2.3234 S   0  0  0  0  0  0  0  0  0  0  0  0
    1.7227   -1.7128   -0.2072 O   0  0  0  0  0  0  0  0  0  0  0  0
    1.5743   -1.9633   -1.6243 C   0  0  0  0  0  0  0  0  0  0  0  0
    2.7127   -2.8225   -2.1320 C   0  0  0  0  0  0  0  0  0  0  0  0
    1.0870    1.2365   -0.1225 S   0  0  0  0  0  0  0  0  0  0  0  0
    0.0435    1.1757    1.3492 C   0  0  0  0  0  0  0  0  0  0  0  0
   -1.0716   -0.2581    1.4020 S   0  0  0  0  0  0  0  0  0  0  0  0
   -2.1991    0.1109   -0.3553 P   0  0  0  0  0  0  0  0  0  0  0  0
   -1.4919   -0.3528   -2.1144 S   0  0  0  0  0  0  0  0  0  0  0  0
   -2.5072    1.6634   -0.1224 O   0  0  0  0  0  0  0  0  0  0  0  0
   -2.7927    2.5485   -1.2237 C   0  0  0  0  0  0  0  0  0  0  0  0
   -4.1834    2.3090   -1.7744 C   0  0  0  0  0  0  0  0  0  0  0  0
   -3.5431   -0.6914   -0.1081 O   0  0  0  0  0  0  0  0  0  0  0  0
   -4.3658   -0.5319    1.0736 C   0  0  0  0  0  0  0  0  0  0  0  0
   -4.2172   -1.7335    1.9848 C   0  0  0  0  0  0  0  0  0  0  0  0
    3.9535    1.8841    1.2978 H   0  0  0  0  0  0  0  0  0  0  0  0
    5.3850    0.8555    1.2231 H   0  0  0  0  0  0  0  0  0  0  0  0
    5.4280    2.4832    0.5211 H   0  0  0  0  0  0  0  0  0  0  0  0
    5.1916    0.7979   -1.2870 H   0  0  0  0  0  0  0  0  0  0  0  0
    3.7060    1.7844   -1.1612 H   0  0  0  0  0  0  0  0  0  0  0  0
    0.6135   -2.4737   -1.7188 H   0  0  0  0  0  0  0  0  0  0  0  0
    1.5202   -1.0104   -2.1579 H   0  0  0  0  0  0  0  0  0  0  0  0
    3.6583   -2.2984   -2.0207 H   0  0  0  0  0  0  0  0  0  0  0  0
    2.7565   -3.7496   -1.5671 H   0  0  0  0  0  0  0  0  0  0  0  0
    2.5444   -3.0465   -3.1806 H   0  0  0  0  0  0  0  0  0  0  0  0
   -0.5376    2.0933    1.3684 H   0  0  0  0  0  0  0  0  0  0  0  0
    0.6759    1.0799    2.2339 H   0  0  0  0  0  0  0  0  0  0  0  0
   -2.6893    3.5473   -0.7978 H   0  0  0  0  0  0  0  0  0  0  0  0
   -2.0372    2.3933   -2.0002 H   0  0  0  0  0  0  0  0  0  0  0  0
   -4.2507    1.2964   -2.1716 H   0  0  0  0  0  0  0  0  0  0  0  0
   -4.9284    2.4334   -0.9928 H   0  0  0  0  0  0  0  0  0  0  0  0
   -4.3801    3.0150   -2.5750 H   0  0  0  0  0  0  0  0  0  0  0  0
   -4.0850    0.3922    1.5846 H   0  0  0  0  0  0  0  0  0  0  0  0
   -5.3855   -0.4501    0.6930 H   0  0  0  0  0  0  0  0  0  0  0  0
   -3.1953   -1.8091    2.3515 H   0  0  0  0  0  0  0  0  0  0  0  0
   -4.8906   -1.6264    2.8292 H   0  0  0  0  0  0  0  0  0  0  0  0
   -4.4610   -2.6432    1.4431 H   0  0  0  0  0  0  0  0  0  0  0  0
  1  2  1  0  0  0  0
  2  3  1  0  0  0  0
  3  4  2  0  0  0  0
  4  5  2  0  0  0  0
  4  6  2  0  0  0  0
  6  7  1  0  0  0  0
  7  8  1  0  0  0  0
  4  9  1  0  0  0  0
  9 10  1  0  0  0  0
 10 11  1  0  0  0  0
 11 12  1  0  0  0  0
 12 13  2  0  0  0  0
 12 14  1  0  0  0  0
 14 15  1  0  0  0  0
 15 16  1  0  0  0  0
 12 17  2  0  0  0  0
 17 18  1  0  0  0  0
 18 19  1  0  0  0  0
  1 20  1  0  0  0  0
  1 21  1  0  0  0  0
  1 22  1  0  0  0  0
  2 23  1  0  0  0  0
  2 24  1  0  0  0  0
  7 25  1  0  0  0  0
  7 26  1  0  0  0  0
  8 27  1  0  0  0  0
  8 28  1  0  0  0  0
  8 29  1  0  0  0  0
 10 30  1  0  0  0  0
 10 31  1  0  0  0  0
 15 32  1  0  0  0  0
 15 33  1  0  0  0  0
 16 34  1  0  0  0  0
 16 35  1  0  0  0  0
 16 36  1  0  0  0  0
 18 37  1  0  0  0  0
 18 38  1  0  0  0  0
 19 39  1  0  0  0  0
 19 40  1  0  0  0  0
 19 41  1  0  0  0  0
M  END
