 xtb: 6.7.1 (edcfbbe)
          04092505213D

 41 40  0     0  0            999 V2000
    3.4706    2.5143   -0.3294 C   0  0  0  0  0  0  0  0  0  0  0  0
    2.4286    1.7938   -1.1589 C   0  0  0  0  0  0  0  0  0  0  0  0
    2.5409    0.3637   -1.0325 O   0  0  0  0  0  0  0  0  0  0  0  0
    2.2277   -0.4082    0.3126 P   0  0  0  0  0  0  0  0  0  0  0  0
    0.9224    0.4292    1.5210 S   0  0  0  0  0  0  0  0  0  0  0  0
    3.6826   -0.5753    0.9232 O   0  0  0  0  0  0  0  0  0  0  0  0
    3.9196   -0.9774    2.2842 C   0  0  0  0  0  0  0  0  0  0  0  0
    3.4929   -2.4081    2.5422 C   0  0  0  0  0  0  0  0  0  0  0  0
    1.7527   -2.3083   -0.4642 S   0  0  0  0  0  0  0  0  0  0  0  0
   -0.0313   -2.0649   -0.6448 C   0  0  0  0  0  0  0  0  0  0  0  0
   -0.4429   -0.6189   -1.6840 S   0  0  0  0  0  0  0  0  0  0  0  0
   -2.0343    0.2051   -0.5637 P   0  0  0  0  0  0  0  0  0  0  0  0
   -2.5824   -0.7401    1.0662 S   0  0  0  0  0  0  0  0  0  0  0  0
   -3.0446    0.2163   -1.7911 O   0  0  0  0  0  0  0  0  0  0  0  0
   -4.2964    0.9321   -1.7953 C   0  0  0  0  0  0  0  0  0  0  0  0
   -5.3895    0.1609   -1.0816 C   0  0  0  0  0  0  0  0  0  0  0  0
   -1.7046    1.7527   -0.3790 O   0  0  0  0  0  0  0  0  0  0  0  0
   -1.6813    2.4433    0.8830 C   0  0  0  0  0  0  0  0  0  0  0  0
   -3.0075    3.1320    1.1337 C   0  0  0  0  0  0  0  0  0  0  0  0
    3.4104    3.5814   -0.5185 H   0  0  0  0  0  0  0  0  0  0  0  0
    3.2912    2.3298    0.7295 H   0  0  0  0  0  0  0  0  0  0  0  0
    4.4638    2.1547   -0.5848 H   0  0  0  0  0  0  0  0  0  0  0  0
    2.5602    1.9714   -2.2269 H   0  0  0  0  0  0  0  0  0  0  0  0
    1.4167    2.0893   -0.8601 H   0  0  0  0  0  0  0  0  0  0  0  0
    4.9955   -0.8486    2.4094 H   0  0  0  0  0  0  0  0  0  0  0  0
    3.3817   -0.2908    2.9458 H   0  0  0  0  0  0  0  0  0  0  0  0
    2.4087   -2.4925    2.4780 H   0  0  0  0  0  0  0  0  0  0  0  0
    3.9382   -3.0735    1.8069 H   0  0  0  0  0  0  0  0  0  0  0  0
    3.8096   -2.7034    3.5374 H   0  0  0  0  0  0  0  0  0  0  0  0
   -0.4931   -1.9248    0.3372 H   0  0  0  0  0  0  0  0  0  0  0  0
   -0.4080   -2.9637   -1.1264 H   0  0  0  0  0  0  0  0  0  0  0  0
   -4.1446    1.9154   -1.3426 H   0  0  0  0  0  0  0  0  0  0  0  0
   -4.5238    1.0493   -2.8566 H   0  0  0  0  0  0  0  0  0  0  0  0
   -6.3250    0.7051   -1.1648 H   0  0  0  0  0  0  0  0  0  0  0  0
   -5.5044   -0.8232   -1.5278 H   0  0  0  0  0  0  0  0  0  0  0  0
   -5.1437    0.0337   -0.0292 H   0  0  0  0  0  0  0  0  0  0  0  0
   -1.4566    1.7306    1.6820 H   0  0  0  0  0  0  0  0  0  0  0  0
   -0.8618    3.1589    0.8015 H   0  0  0  0  0  0  0  0  0  0  0  0
   -3.7982    2.3904    1.2328 H   0  0  0  0  0  0  0  0  0  0  0  0
   -2.9412    3.6990    2.0566 H   0  0  0  0  0  0  0  0  0  0  0  0
   -3.2446    3.8060    0.3148 H   0  0  0  0  0  0  0  0  0  0  0  0
  1  2  1  0  0  0  0
  2  3  1  0  0  0  0
  3  4  2  0  0  0  0
  4  5  2  0  0  0  0
  4  6  2  0  0  0  0
  6  7  1  0  0  0  0
  7  8  1  0  0  0  0
  4  9  1  0  0  0  0
  9 10  1  0  0  0  0
 10 11  1  0  0  0  0
 11 12  1  0  0  0  0
 12 13  2  0  0  0  0
 12 14  2  0  0  0  0
 14 15  1  0  0  0  0
 15 16  1  0  0  0  0
 12 17  2  0  0  0  0
 17 18  1  0  0  0  0
 18 19  1  0  0  0  0
  1 20  1  0  0  0  0
  1 21  1  0  0  0  0
  1 22  1  0  0  0  0
  2 23  1  0  0  0  0
  2 24  1  0  0  0  0
  7 25  1  0  0  0  0
  7 26  1  0  0  0  0
  8 27  1  0  0  0  0
  8 28  1  0  0  0  0
  8 29  1  0  0  0  0
 10 30  1  0  0  0  0
 10 31  1  0  0  0  0
 15 32  1  0  0  0  0
 15 33  1  0  0  0  0
 16 34  1  0  0  0  0
 16 35  1  0  0  0  0
 16 36  1  0  0  0  0
 18 37  1  0  0  0  0
 18 38  1  0  0  0  0
 19 39  1  0  0  0  0
 19 40  1  0  0  0  0
 19 41  1  0  0  0  0
M  END
