 xtb: 6.7.1 (edcfbbe)
          04092505203D

 41 40  0     0  0            999 V2000
    4.9190    1.4683    0.3712 C   0  0  0  0  0  0  0  0  0  0  0  0
    3.6454    1.7170   -0.4081 C   0  0  0  0  0  0  0  0  0  0  0  0
    2.9692    0.4819   -0.7315 O   0  0  0  0  0  0  0  0  0  0  0  0
    2.2557   -0.3892    0.3788 P   0  0  0  0  0  0  0  0  0  0  0  0
    1.5432    0.5887    1.9244 S   0  0  0  0  0  0  0  0  0  0  0  0
    3.3828   -1.4425    0.7678 O   0  0  0  0  0  0  0  0  0  0  0  0
    3.2883   -2.2655    1.9401 C   0  0  0  0  0  0  0  0  0  0  0  0
    2.2156   -3.3257    1.7936 C   0  0  0  0  0  0  0  0  0  0  0  0
    0.9452   -1.5148   -0.8582 S   0  0  0  0  0  0  0  0  0  0  0  0
    0.3706   -0.1959   -1.9661 C   0  0  0  0  0  0  0  0  0  0  0  0
   -0.4624    1.1592   -1.1099 S   0  0  0  0  0  0  0  0  0  0  0  0
   -2.2332    0.0816   -0.5747 P   0  0  0  0  0  0  0  0  0  0  0  0
   -2.7269   -1.3458   -1.8134 S   0  0  0  0  0  0  0  0  0  0  0  0
   -3.2924    1.2514   -0.4076 O   0  0  0  0  0  0  0  0  0  0  0  0
   -3.7942    1.9630   -1.5590 C   0  0  0  0  0  0  0  0  0  0  0  0
   -5.0037    2.7619   -1.1186 C   0  0  0  0  0  0  0  0  0  0  0  0
   -2.0425   -0.4366    0.8975 O   0  0  0  0  0  0  0  0  0  0  0  0
   -1.9256    0.4408    2.0460 C   0  0  0  0  0  0  0  0  0  0  0  0
   -3.2688    0.6165    2.7209 C   0  0  0  0  0  0  0  0  0  0  0  0
    5.4468    2.4070    0.5070 H   0  0  0  0  0  0  0  0  0  0  0  0
    4.6789    1.0523    1.3488 H   0  0  0  0  0  0  0  0  0  0  0  0
    5.5552    0.7670   -0.1622 H   0  0  0  0  0  0  0  0  0  0  0  0
    3.8452    2.1682   -1.3807 H   0  0  0  0  0  0  0  0  0  0  0  0
    2.9575    2.3495    0.1621 H   0  0  0  0  0  0  0  0  0  0  0  0
    4.2812   -2.7063    2.0375 H   0  0  0  0  0  0  0  0  0  0  0  0
    3.0788   -1.6213    2.8011 H   0  0  0  0  0  0  0  0  0  0  0  0
    2.3949   -3.9263    0.9054 H   0  0  0  0  0  0  0  0  0  0  0  0
    2.2141   -3.9660    2.6698 H   0  0  0  0  0  0  0  0  0  0  0  0
    1.2371   -2.8532    1.6980 H   0  0  0  0  0  0  0  0  0  0  0  0
   -0.3345   -0.6762   -2.6467 H   0  0  0  0  0  0  0  0  0  0  0  0
    1.2149    0.2312   -2.4999 H   0  0  0  0  0  0  0  0  0  0  0  0
   -2.9984    2.6135   -1.9319 H   0  0  0  0  0  0  0  0  0  0  0  0
   -4.0528    1.2321   -2.3320 H   0  0  0  0  0  0  0  0  0  0  0  0
   -4.7240    3.4582   -0.3332 H   0  0  0  0  0  0  0  0  0  0  0  0
   -5.3916    3.3153   -1.9674 H   0  0  0  0  0  0  0  0  0  0  0  0
   -5.7753    2.0958   -0.7430 H   0  0  0  0  0  0  0  0  0  0  0  0
   -1.2081   -0.0560    2.7019 H   0  0  0  0  0  0  0  0  0  0  0  0
   -1.5076    1.3984    1.7246 H   0  0  0  0  0  0  0  0  0  0  0  0
   -3.1355    1.2125    3.6182 H   0  0  0  0  0  0  0  0  0  0  0  0
   -3.9637    1.1188    2.0534 H   0  0  0  0  0  0  0  0  0  0  0  0
   -3.6774   -0.3536    2.9900 H   0  0  0  0  0  0  0  0  0  0  0  0
  1  2  1  0  0  0  0
  2  3  1  0  0  0  0
  3  4  2  0  0  0  0
  4  5  2  0  0  0  0
  4  6  2  0  0  0  0
  6  7  1  0  0  0  0
  7  8  1  0  0  0  0
  4  9  1  0  0  0  0
  9 10  1  0  0  0  0
 10 11  1  0  0  0  0
 11 12  1  0  0  0  0
 12 13  2  0  0  0  0
 12 14  2  0  0  0  0
 14 15  1  0  0  0  0
 15 16  1  0  0  0  0
 12 17  2  0  0  0  0
 17 18  1  0  0  0  0
 18 19  1  0  0  0  0
  1 20  1  0  0  0  0
  1 21  1  0  0  0  0
  1 22  1  0  0  0  0
  2 23  1  0  0  0  0
  2 24  1  0  0  0  0
  7 25  1  0  0  0  0
  7 26  1  0  0  0  0
  8 27  1  0  0  0  0
  8 28  1  0  0  0  0
  8 29  1  0  0  0  0
 10 30  1  0  0  0  0
 10 31  1  0  0  0  0
 15 32  1  0  0  0  0
 15 33  1  0  0  0  0
 16 34  1  0  0  0  0
 16 35  1  0  0  0  0
 16 36  1  0  0  0  0
 18 37  1  0  0  0  0
 18 38  1  0  0  0  0
 19 39  1  0  0  0  0
 19 40  1  0  0  0  0
 19 41  1  0  0  0  0
M  END
