  21
 
 C         -2.3097056127        0.5552953912        1.1660236808
 C         -1.6990663070        0.3611889990       -0.2246546386
 C         -2.3715533749       -0.8035838485       -0.9537669957
 C         -0.2070661314        0.1610808898       -0.1131390245
 C          0.6679843710        1.1378064470       -0.5715720649
 C          2.0381426631        0.9776125717       -0.4579035318
 C          2.5567898781       -0.1693143033        0.1170769594
 C          1.6952713195       -1.1503471712        0.5783383629
 C          0.3267431156       -0.9843396280        0.4661899198
 H         -1.8441862791        1.4003871153        1.6684156778
 H         -2.1596367187       -0.3315022287        1.7767966767
 H         -3.3776040803        0.7436956132        1.0852087729
 H         -1.8759373847        1.2734845337       -0.8053803606
 H         -1.9084696520       -0.9606522569       -1.9253527676
 H         -3.4274015469       -0.5900582265       -1.1027438198
 H         -2.2875412525       -1.7225932852       -0.3798491390
 H          0.2719735269        2.0369951818       -1.0225827884
 H          2.7014483481        1.7499723876       -0.8188782778
 H          3.6252126303       -0.2980751797        0.2061934167
 H          2.0919215301       -2.0485388480        1.0287265446
 H         -0.3299926454       -1.7577483353        0.8354321038
          21
        -25.38162546
 C         -2.3365708500       -0.1478947451        1.2615972464
 C         -1.6953576945        0.4327995929       -0.0010071636
 C         -2.3415233199       -0.1549818615       -1.2576762844
 C         -0.2044634890        0.1971825136       -0.0018729930
 C          0.3210637013       -1.0899167592       -0.0000798799
 C          1.6883657026       -1.2975010501        0.0015513054
 C          2.5571379922       -0.2191697579        0.0011561736
 C          2.0469482620        1.0671185255       -0.0015045649
 C          0.6776856419        1.2701402247       -0.0031332236
 H         -1.8751530324        0.2779440887        2.1499032331
 H         -2.2140163646       -1.2273546440        1.2952533268
 H         -3.4000500226        0.0782689460        1.2800002061
 H         -1.8679488497        1.5149732478       -0.0038525523
 H         -3.4031204231        0.0800819971       -1.2779100395
 H         -2.2287361810       -1.2358872801       -1.2806744980
 H         -1.8769588448        0.2579362170       -2.1504149526
 H         -0.3417140983       -1.9424229978        0.0002548693
 H          2.0784988505       -2.3048199690        0.0032249802
 H          3.6247018113       -0.3810715296        0.0031384253
 H          2.7160459859        1.9151338791       -0.0022202063
 H          0.2883246628        2.2787015872       -0.0051507818
