 xtb: 6.7.1 (edcfbbe)
          04092505213D

 41 40  0     0  0            999 V2000
    2.7129   -1.0206   -2.8783 C   0  0  0  0  0  0  0  0  0  0  0  0
    3.2607    0.1346   -2.0625 C   0  0  0  0  0  0  0  0  0  0  0  0
    2.2470    0.6749   -1.1791 O   0  0  0  0  0  0  0  0  0  0  0  0
    2.0692    0.3210    0.3449 P   0  0  0  0  0  0  0  0  0  0  0  0
    0.7008    1.4933    1.1130 S   0  0  0  0  0  0  0  0  0  0  0  0
    3.5477    0.5164    0.8927 O   0  0  0  0  0  0  0  0  0  0  0  0
    4.0611   -0.0260    2.1253 C   0  0  0  0  0  0  0  0  0  0  0  0
    3.1856    0.2918    3.3187 C   0  0  0  0  0  0  0  0  0  0  0  0
    1.8387   -1.7904    0.5347 S   0  0  0  0  0  0  0  0  0  0  0  0
    0.1965   -2.0352   -0.1864 C   0  0  0  0  0  0  0  0  0  0  0  0
   -1.1552   -1.3856    0.8466 S   0  0  0  0  0  0  0  0  0  0  0  0
   -1.9446    0.0367   -0.4988 P   0  0  0  0  0  0  0  0  0  0  0  0
   -0.8913    0.5031   -2.0777 S   0  0  0  0  0  0  0  0  0  0  0  0
   -2.3981    1.3147    0.3167 O   0  0  0  0  0  0  0  0  0  0  0  0
   -3.3555    1.3017    1.4021 C   0  0  0  0  0  0  0  0  0  0  0  0
   -2.6841    1.0571    2.7386 C   0  0  0  0  0  0  0  0  0  0  0  0
   -3.2906   -0.7666   -0.8491 O   0  0  0  0  0  0  0  0  0  0  0  0
   -4.0197   -0.5532   -2.0709 C   0  0  0  0  0  0  0  0  0  0  0  0
   -4.7542    0.7728   -2.0698 C   0  0  0  0  0  0  0  0  0  0  0  0
    2.5669   -1.9013   -2.2578 H   0  0  0  0  0  0  0  0  0  0  0  0
    1.7619   -0.7342   -3.3233 H   0  0  0  0  0  0  0  0  0  0  0  0
    3.4172   -1.2596   -3.6687 H   0  0  0  0  0  0  0  0  0  0  0  0
    3.5215    0.9781   -2.7037 H   0  0  0  0  0  0  0  0  0  0  0  0
    4.1281   -0.1626   -1.4703 H   0  0  0  0  0  0  0  0  0  0  0  0
    4.1678   -1.1069    2.0006 H   0  0  0  0  0  0  0  0  0  0  0  0
    5.0450    0.4378    2.2168 H   0  0  0  0  0  0  0  0  0  0  0  0
    2.2123   -0.1848    3.2082 H   0  0  0  0  0  0  0  0  0  0  0  0
    3.6605   -0.0768    4.2221 H   0  0  0  0  0  0  0  0  0  0  0  0
    3.0324    1.3653    3.4017 H   0  0  0  0  0  0  0  0  0  0  0  0
    0.0732   -3.1122   -0.2645 H   0  0  0  0  0  0  0  0  0  0  0  0
    0.1473   -1.5514   -1.1656 H   0  0  0  0  0  0  0  0  0  0  0  0
   -3.7977    2.2988    1.3613 H   0  0  0  0  0  0  0  0  0  0  0  0
   -4.1155    0.5437    1.1945 H   0  0  0  0  0  0  0  0  0  0  0  0
   -1.8159    1.7051    2.8367 H   0  0  0  0  0  0  0  0  0  0  0  0
   -3.3890    1.2730    3.5351 H   0  0  0  0  0  0  0  0  0  0  0  0
   -2.3538    0.0244    2.8247 H   0  0  0  0  0  0  0  0  0  0  0  0
   -3.3138   -0.5985   -2.9063 H   0  0  0  0  0  0  0  0  0  0  0  0
   -4.7074   -1.3986   -2.1181 H   0  0  0  0  0  0  0  0  0  0  0  0
   -4.0376    1.5911   -1.9972 H   0  0  0  0  0  0  0  0  0  0  0  0
   -5.3109    0.8750   -2.9960 H   0  0  0  0  0  0  0  0  0  0  0  0
   -5.4414    0.8296   -1.2294 H   0  0  0  0  0  0  0  0  0  0  0  0
  1  2  1  0  0  0  0
  2  3  1  0  0  0  0
  3  4  2  0  0  0  0
  4  5  2  0  0  0  0
  4  6  2  0  0  0  0
  6  7  1  0  0  0  0
  7  8  1  0  0  0  0
  4  9  1  0  0  0  0
  9 10  1  0  0  0  0
 10 11  1  0  0  0  0
 11 12  1  0  0  0  0
 12 13  2  0  0  0  0
 12 14  2  0  0  0  0
 14 15  1  0  0  0  0
 15 16  1  0  0  0  0
 12 17  1  0  0  0  0
 17 18  1  0  0  0  0
 18 19  1  0  0  0  0
  1 20  1  0  0  0  0
  1 21  1  0  0  0  0
  1 22  1  0  0  0  0
  2 23  1  0  0  0  0
  2 24  1  0  0  0  0
  7 25  1  0  0  0  0
  7 26  1  0  0  0  0
  8 27  1  0  0  0  0
  8 28  1  0  0  0  0
  8 29  1  0  0  0  0
 10 30  1  0  0  0  0
 10 31  1  0  0  0  0
 15 32  1  0  0  0  0
 15 33  1  0  0  0  0
 16 34  1  0  0  0  0
 16 35  1  0  0  0  0
 16 36  1  0  0  0  0
 18 37  1  0  0  0  0
 18 38  1  0  0  0  0
 19 39  1  0  0  0  0
 19 40  1  0  0  0  0
 19 41  1  0  0  0  0
M  END
