 xtb: 6.7.1 (edcfbbe)
          04092505213D

 41 40  0     0  0            999 V2000
    4.3752   -2.2215   -0.9831 C   0  0  0  0  0  0  0  0  0  0  0  0
    4.4632   -0.7953   -0.4761 C   0  0  0  0  0  0  0  0  0  0  0  0
    3.4302    0.0244   -1.0830 O   0  0  0  0  0  0  0  0  0  0  0  0
    2.1562    0.5643   -0.3318 P   0  0  0  0  0  0  0  0  0  0  0  0
    1.1800    1.7591   -1.5325 S   0  0  0  0  0  0  0  0  0  0  0  0
    2.7946    1.1567    0.9942 O   0  0  0  0  0  0  0  0  0  0  0  0
    2.0881    1.7355    2.1073 C   0  0  0  0  0  0  0  0  0  0  0  0
    1.6861    3.1697    1.8313 C   0  0  0  0  0  0  0  0  0  0  0  0
    1.1684   -1.1900    0.4033 S   0  0  0  0  0  0  0  0  0  0  0  0
    0.5319   -1.7967   -1.1726 C   0  0  0  0  0  0  0  0  0  0  0  0
   -0.9472   -0.9285   -1.8146 S   0  0  0  0  0  0  0  0  0  0  0  0
   -1.9534   -0.4382   -0.0188 P   0  0  0  0  0  0  0  0  0  0  0  0
   -1.3238    1.0290    1.1280 S   0  0  0  0  0  0  0  0  0  0  0  0
   -2.0320   -1.8662    0.6476 O   0  0  0  0  0  0  0  0  0  0  0  0
   -2.2386   -2.0444    2.0662 C   0  0  0  0  0  0  0  0  0  0  0  0
   -3.6508   -1.6768    2.4676 C   0  0  0  0  0  0  0  0  0  0  0  0
   -3.4304   -0.2220   -0.5657 O   0  0  0  0  0  0  0  0  0  0  0  0
   -3.8764    1.0338   -1.1161 C   0  0  0  0  0  0  0  0  0  0  0  0
   -4.7358    1.7728   -0.1084 C   0  0  0  0  0  0  0  0  0  0  0  0
    4.3725   -2.2307   -2.0697 H   0  0  0  0  0  0  0  0  0  0  0  0
    5.2381   -2.7743   -0.6256 H   0  0  0  0  0  0  0  0  0  0  0  0
    3.4718   -2.7044   -0.6192 H   0  0  0  0  0  0  0  0  0  0  0  0
    5.3988   -0.3241   -0.7807 H   0  0  0  0  0  0  0  0  0  0  0  0
    4.3658   -0.7497    0.6097 H   0  0  0  0  0  0  0  0  0  0  0  0
    1.2090    1.1280    2.3362 H   0  0  0  0  0  0  0  0  0  0  0  0
    2.8044    1.6743    2.9288 H   0  0  0  0  0  0  0  0  0  0  0  0
    0.9430    3.2046    1.0371 H   0  0  0  0  0  0  0  0  0  0  0  0
    1.2529    3.5967    2.7298 H   0  0  0  0  0  0  0  0  0  0  0  0
    2.5516    3.7531    1.5292 H   0  0  0  0  0  0  0  0  0  0  0  0
    0.2707   -2.8403   -1.0138 H   0  0  0  0  0  0  0  0  0  0  0  0
    1.2931   -1.6896   -1.9446 H   0  0  0  0  0  0  0  0  0  0  0  0
   -2.0276   -3.1016    2.2295 H   0  0  0  0  0  0  0  0  0  0  0  0
   -1.5086   -1.4298    2.6025 H   0  0  0  0  0  0  0  0  0  0  0  0
   -4.3679   -2.2352    1.8719 H   0  0  0  0  0  0  0  0  0  0  0  0
   -3.7981   -1.9007    3.5194 H   0  0  0  0  0  0  0  0  0  0  0  0
   -3.8122   -0.6119    2.3048 H   0  0  0  0  0  0  0  0  0  0  0  0
   -3.0092    1.6356   -1.4059 H   0  0  0  0  0  0  0  0  0  0  0  0
   -4.4448    0.7675   -2.0092 H   0  0  0  0  0  0  0  0  0  0  0  0
   -4.1409    2.0450    0.7612 H   0  0  0  0  0  0  0  0  0  0  0  0
   -5.1250    2.6764   -0.5662 H   0  0  0  0  0  0  0  0  0  0  0  0
   -5.5618    1.1427    0.2089 H   0  0  0  0  0  0  0  0  0  0  0  0
  1  2  1  0  0  0  0
  2  3  1  0  0  0  0
  3  4  2  0  0  0  0
  4  5  2  0  0  0  0
  4  6  2  0  0  0  0
  6  7  1  0  0  0  0
  7  8  1  0  0  0  0
  4  9  1  0  0  0  0
  9 10  1  0  0  0  0
 10 11  1  0  0  0  0
 11 12  1  0  0  0  0
 12 13  2  0  0  0  0
 12 14  2  0  0  0  0
 14 15  1  0  0  0  0
 15 16  1  0  0  0  0
 12 17  2  0  0  0  0
 17 18  1  0  0  0  0
 18 19  1  0  0  0  0
  1 20  1  0  0  0  0
  1 21  1  0  0  0  0
  1 22  1  0  0  0  0
  2 23  1  0  0  0  0
  2 24  1  0  0  0  0
  7 25  1  0  0  0  0
  7 26  1  0  0  0  0
  8 27  1  0  0  0  0
  8 28  1  0  0  0  0
  8 29  1  0  0  0  0
 10 30  1  0  0  0  0
 10 31  1  0  0  0  0
 15 32  1  0  0  0  0
 15 33  1  0  0  0  0
 16 34  1  0  0  0  0
 16 35  1  0  0  0  0
 16 36  1  0  0  0  0
 18 37  1  0  0  0  0
 18 38  1  0  0  0  0
 19 39  1  0  0  0  0
 19 40  1  0  0  0  0
 19 41  1  0  0  0  0
M  END
