 xtb: 6.7.1 (edcfbbe)
          04092505203D

 41 40  0     0  0            999 V2000
    4.5640    0.2717   -2.0541 C   0  0  0  0  0  0  0  0  0  0  0  0
    4.4154    1.1549   -0.8324 C   0  0  0  0  0  0  0  0  0  0  0  0
    3.5650    0.5689    0.1692 O   0  0  0  0  0  0  0  0  0  0  0  0
    2.0040    0.3390   -0.0419 P   0  0  0  0  0  0  0  0  0  0  0  0
    1.0727    1.7849   -0.9712 S   0  0  0  0  0  0  0  0  0  0  0  0
    1.5174    0.1351    1.4439 O   0  0  0  0  0  0  0  0  0  0  0  0
    2.1661   -0.7973    2.3509 C   0  0  0  0  0  0  0  0  0  0  0  0
    1.1415   -1.2623    3.3642 C   0  0  0  0  0  0  0  0  0  0  0  0
    1.9303   -1.5874   -0.9420 S   0  0  0  0  0  0  0  0  0  0  0  0
    0.1633   -1.6569   -1.3132 C   0  0  0  0  0  0  0  0  0  0  0  0
   -0.8763   -1.7815    0.1779 S   0  0  0  0  0  0  0  0  0  0  0  0
   -1.9756    0.0085    0.0320 P   0  0  0  0  0  0  0  0  0  0  0  0
   -2.2591    0.6589   -1.8026 S   0  0  0  0  0  0  0  0  0  0  0  0
   -1.1964    0.8900    1.0904 O   0  0  0  0  0  0  0  0  0  0  0  0
   -1.7232    2.0547    1.7579 C   0  0  0  0  0  0  0  0  0  0  0  0
   -2.1921    3.1192    0.7885 C   0  0  0  0  0  0  0  0  0  0  0  0
   -3.3249   -0.2794    0.8251 O   0  0  0  0  0  0  0  0  0  0  0  0
   -4.5020   -0.7993    0.1839 C   0  0  0  0  0  0  0  0  0  0  0  0
   -4.3366   -2.2500   -0.2195 C   0  0  0  0  0  0  0  0  0  0  0  0
    4.8542   -0.7343   -1.7617 H   0  0  0  0  0  0  0  0  0  0  0  0
    3.6210    0.2221   -2.5963 H   0  0  0  0  0  0  0  0  0  0  0  0
    5.3218    0.6914   -2.7078 H   0  0  0  0  0  0  0  0  0  0  0  0
    4.0000    2.1288   -1.1096 H   0  0  0  0  0  0  0  0  0  0  0  0
    5.3662    1.2898   -0.3147 H   0  0  0  0  0  0  0  0  0  0  0  0
    2.5625   -1.6352    1.7698 H   0  0  0  0  0  0  0  0  0  0  0  0
    2.9920   -0.2637    2.8246 H   0  0  0  0  0  0  0  0  0  0  0  0
    0.3321   -1.7904    2.8662 H   0  0  0  0  0  0  0  0  0  0  0  0
    1.6226   -1.9296    4.0720 H   0  0  0  0  0  0  0  0  0  0  0  0
    0.7280   -0.4096    3.8951 H   0  0  0  0  0  0  0  0  0  0  0  0
    0.0201   -2.5600   -1.9009 H   0  0  0  0  0  0  0  0  0  0  0  0
   -0.1401   -0.7688   -1.8753 H   0  0  0  0  0  0  0  0  0  0  0  0
   -2.5361    1.7314    2.4124 H   0  0  0  0  0  0  0  0  0  0  0  0
   -0.8775    2.4055    2.3526 H   0  0  0  0  0  0  0  0  0  0  0  0
   -1.3933    3.3678    0.0912 H   0  0  0  0  0  0  0  0  0  0  0  0
   -3.0470    2.7594    0.2167 H   0  0  0  0  0  0  0  0  0  0  0  0
   -2.4799    4.0100    1.3377 H   0  0  0  0  0  0  0  0  0  0  0  0
   -5.2845   -0.6749    0.9336 H   0  0  0  0  0  0  0  0  0  0  0  0
   -4.7203   -0.1800   -0.6922 H   0  0  0  0  0  0  0  0  0  0  0  0
   -3.9995   -2.8421    0.6274 H   0  0  0  0  0  0  0  0  0  0  0  0
   -5.2879   -2.6333   -0.5741 H   0  0  0  0  0  0  0  0  0  0  0  0
   -3.6032   -2.3311   -1.0202 H   0  0  0  0  0  0  0  0  0  0  0  0
  1  2  1  0  0  0  0
  2  3  1  0  0  0  0
  3  4  2  0  0  0  0
  4  5  2  0  0  0  0
  4  6  2  0  0  0  0
  6  7  1  0  0  0  0
  7  8  1  0  0  0  0
  4  9  1  0  0  0  0
  9 10  1  0  0  0  0
 10 11  1  0  0  0  0
 11 12  1  0  0  0  0
 12 13  2  0  0  0  0
 12 14  2  0  0  0  0
 14 15  1  0  0  0  0
 15 16  1  0  0  0  0
 12 17  2  0  0  0  0
 17 18  1  0  0  0  0
 18 19  1  0  0  0  0
  1 20  1  0  0  0  0
  1 21  1  0  0  0  0
  1 22  1  0  0  0  0
  2 23  1  0  0  0  0
  2 24  1  0  0  0  0
  7 25  1  0  0  0  0
  7 26  1  0  0  0  0
  8 27  1  0  0  0  0
  8 28  1  0  0  0  0
  8 29  1  0  0  0  0
 10 30  1  0  0  0  0
 10 31  1  0  0  0  0
 15 32  1  0  0  0  0
 15 33  1  0  0  0  0
 16 34  1  0  0  0  0
 16 35  1  0  0  0  0
 16 36  1  0  0  0  0
 18 37  1  0  0  0  0
 18 38  1  0  0  0  0
 19 39  1  0  0  0  0
 19 40  1  0  0  0  0
 19 41  1  0  0  0  0
M  END
