 xtb: 6.7.1 (edcfbbe)
          04092505203D

 41 40  0     0  0            999 V2000
    5.8074   -0.5738   -0.5519 C   0  0  0  0  0  0  0  0  0  0  0  0
    4.3368   -0.8762   -0.7573 C   0  0  0  0  0  0  0  0  0  0  0  0
    3.5791    0.2386   -0.2511 O   0  0  0  0  0  0  0  0  0  0  0  0
    2.0526    0.4495   -0.6517 P   0  0  0  0  0  0  0  0  0  0  0  0
    1.7478    0.4047   -2.5843 S   0  0  0  0  0  0  0  0  0  0  0  0
    1.7559    1.8488   -0.0038 O   0  0  0  0  0  0  0  0  0  0  0  0
    1.5018    2.1365    1.3920 C   0  0  0  0  0  0  0  0  0  0  0  0
    2.5530    1.5636    2.3166 C   0  0  0  0  0  0  0  0  0  0  0  0
    1.0817   -1.0781    0.4708 S   0  0  0  0  0  0  0  0  0  0  0  0
   -0.0546   -1.7635   -0.7777 C   0  0  0  0  0  0  0  0  0  0  0  0
   -1.7398   -1.9316   -0.1538 S   0  0  0  0  0  0  0  0  0  0  0  0
   -2.0875    0.1127    0.3181 P   0  0  0  0  0  0  0  0  0  0  0  0
   -1.3315    1.4400   -0.9167 S   0  0  0  0  0  0  0  0  0  0  0  0
   -1.5466    0.3350    1.7827 O   0  0  0  0  0  0  0  0  0  0  0  0
   -1.5820   -0.6194    2.8764 C   0  0  0  0  0  0  0  0  0  0  0  0
   -2.9729   -1.1437    3.1550 C   0  0  0  0  0  0  0  0  0  0  0  0
   -3.6605    0.2111    0.5087 O   0  0  0  0  0  0  0  0  0  0  0  0
   -4.5634    0.4823   -0.5758 C   0  0  0  0  0  0  0  0  0  0  0  0
   -4.5993   -0.6419   -1.5912 C   0  0  0  0  0  0  0  0  0  0  0  0
    6.0793    0.3304   -1.0893 H   0  0  0  0  0  0  0  0  0  0  0  0
    6.0141   -0.4316    0.5047 H   0  0  0  0  0  0  0  0  0  0  0  0
    6.3967   -1.4042   -0.9263 H   0  0  0  0  0  0  0  0  0  0  0  0
    4.0331   -1.7717   -0.2076 H   0  0  0  0  0  0  0  0  0  0  0  0
    4.0979   -1.0073   -1.8184 H   0  0  0  0  0  0  0  0  0  0  0  0
    1.4884    3.2274    1.4173 H   0  0  0  0  0  0  0  0  0  0  0  0
    0.5044    1.7582    1.6359 H   0  0  0  0  0  0  0  0  0  0  0  0
    3.5404    1.9027    2.0143 H   0  0  0  0  0  0  0  0  0  0  0  0
    2.3502    1.8978    3.3295 H   0  0  0  0  0  0  0  0  0  0  0  0
    2.5289    0.4751    2.2906 H   0  0  0  0  0  0  0  0  0  0  0  0
    0.2736   -2.7674   -1.0352 H   0  0  0  0  0  0  0  0  0  0  0  0
   -0.0328   -1.1058   -1.6517 H   0  0  0  0  0  0  0  0  0  0  0  0
   -0.8922   -1.4333    2.6349 H   0  0  0  0  0  0  0  0  0  0  0  0
   -1.1922   -0.0437    3.7169 H   0  0  0  0  0  0  0  0  0  0  0  0
   -3.6610   -0.3187    3.3190 H   0  0  0  0  0  0  0  0  0  0  0  0
   -3.3289   -1.7375    2.3157 H   0  0  0  0  0  0  0  0  0  0  0  0
   -2.9417   -1.7688    4.0421 H   0  0  0  0  0  0  0  0  0  0  0  0
   -5.5282    0.6110   -0.0832 H   0  0  0  0  0  0  0  0  0  0  0  0
   -4.2608    1.4203   -1.0520 H   0  0  0  0  0  0  0  0  0  0  0  0
   -4.7810   -1.5935   -1.0983 H   0  0  0  0  0  0  0  0  0  0  0  0
   -5.3901   -0.4504   -2.3095 H   0  0  0  0  0  0  0  0  0  0  0  0
   -3.6500   -0.6948   -2.1225 H   0  0  0  0  0  0  0  0  0  0  0  0
  1  2  1  0  0  0  0
  2  3  1  0  0  0  0
  3  4  2  0  0  0  0
  4  5  2  0  0  0  0
  4  6  2  0  0  0  0
  6  7  1  0  0  0  0
  7  8  1  0  0  0  0
  4  9  1  0  0  0  0
  9 10  1  0  0  0  0
 10 11  1  0  0  0  0
 11 12  1  0  0  0  0
 12 13  2  0  0  0  0
 12 14  2  0  0  0  0
 14 15  1  0  0  0  0
 15 16  1  0  0  0  0
 12 17  2  0  0  0  0
 17 18  1  0  0  0  0
 18 19  1  0  0  0  0
  1 20  1  0  0  0  0
  1 21  1  0  0  0  0
  1 22  1  0  0  0  0
  2 23  1  0  0  0  0
  2 24  1  0  0  0  0
  7 25  1  0  0  0  0
  7 26  1  0  0  0  0
  8 27  1  0  0  0  0
  8 28  1  0  0  0  0
  8 29  1  0  0  0  0
 10 30  1  0  0  0  0
 10 31  1  0  0  0  0
 15 32  1  0  0  0  0
 15 33  1  0  0  0  0
 16 34  1  0  0  0  0
 16 35  1  0  0  0  0
 16 36  1  0  0  0  0
 18 37  1  0  0  0  0
 18 38  1  0  0  0  0
 19 39  1  0  0  0  0
 19 40  1  0  0  0  0
 19 41  1  0  0  0  0
M  END
