 xtb: 6.7.1 (edcfbbe)
          04032520183D

 21 21  0     0  0            999 V2000
   -3.0603   -0.3812   -0.0018 C   0  0  0  0  0  0  0  0  0  0  0  0
   -1.5972   -0.0545    0.0026 C   0  0  0  0  0  0  0  0  0  0  0  0
   -1.1686    1.2690    0.0006 C   0  0  0  0  0  0  0  0  0  0  0  0
    0.1784    1.5587   -0.0010 C   0  0  0  0  0  0  0  0  0  0  0  0
    1.1505    0.5587   -0.0009 C   0  0  0  0  0  0  0  0  0  0  0  0
    0.7327   -0.7708   -0.0005 C   0  0  0  0  0  0  0  0  0  0  0  0
   -0.6342   -1.0467    0.0014 C   0  0  0  0  0  0  0  0  0  0  0  0
    1.6585   -1.9550   -0.0005 C   0  0  0  0  0  0  0  0  0  0  0  0
    2.5854    1.0056    0.0010 C   0  0  0  0  0  0  0  0  0  0  0  0
   -3.5137   -0.0613   -0.9393 H   0  0  0  0  0  0  0  0  0  0  0  0
   -3.2200   -1.4500    0.1132 H   0  0  0  0  0  0  0  0  0  0  0  0
   -3.5682    0.1395    0.8082 H   0  0  0  0  0  0  0  0  0  0  0  0
   -1.8952    2.0689    0.0011 H   0  0  0  0  0  0  0  0  0  0  0  0
    0.4994    2.5912   -0.0017 H   0  0  0  0  0  0  0  0  0  0  0  0
   -0.9465   -2.0825    0.0028 H   0  0  0  0  0  0  0  0  0  0  0  0
    1.4588   -2.5765   -0.8722 H   0  0  0  0  0  0  0  0  0  0  0  0
    2.7054   -1.6746   -0.0158 H   0  0  0  0  0  0  0  0  0  0  0  0
    1.4800   -2.5599    0.8875 H   0  0  0  0  0  0  0  0  0  0  0  0
    3.2869    0.1793   -0.0078 H   0  0  0  0  0  0  0  0  0  0  0  0
    2.7779    1.6262   -0.8732 H   0  0  0  0  0  0  0  0  0  0  0  0
    2.7804    1.6091    0.8865 H   0  0  0  0  0  0  0  0  0  0  0  0
  1  2  1  0  0  0  0
  2  3  4  0  0  0  0
  3  4  4  0  0  0  0
  4  5  4  0  0  0  0
  5  6  4  0  0  0  0
  2  7  4  0  0  0  0
  6  7  4  0  0  0  0
  6  8  1  0  0  0  0
  5  9  1  0  0  0  0
  1 10  1  0  0  0  0
  1 11  1  0  0  0  0
  1 12  1  0  0  0  0
  3 13  1  0  0  0  0
  4 14  1  0  0  0  0
  7 15  1  0  0  0  0
  8 16  1  0  0  0  0
  8 17  1  0  0  0  0
  8 18  1  0  0  0  0
  9 19  1  0  0  0  0
  9 20  1  0  0  0  0
  9 21  1  0  0  0  0
M  END
