  26
 
 C          0.5358116787       -1.9275606835       -0.2980979534
 C          1.8859260021       -2.1804248431       -0.3913627012
 C          2.8240605245       -1.1598972881       -0.2250319695
 C          2.3618299620        0.1428225637        0.0425040121
 C          0.9907028922        0.3817460599        0.1272321035
 C          0.0669697638       -0.6374036479       -0.0400900431
 C         -1.3785614418       -0.3815081136        0.0604835723
 C         -2.2103972904       -1.2515663200        0.7655939011
 C         -3.5701754473       -1.0284056410        0.8751709409
 C         -4.1089919468        0.0858071465        0.2608155229
 C         -3.3350510445        0.9765216750       -0.4575958943
 C         -1.9797006829        0.7223357382       -0.5400356362
 F         -1.2289276159        1.5877355698       -1.2695618124
 F         -5.4435749110        0.3190944078        0.3594638448
 C          3.3095166113        1.2551331557        0.2282892789
 O          4.5123807892        1.1955911435        0.0602700046
 O          2.7222643118        2.3888822458        0.6118078144
 O          4.1407514150       -1.3956252746       -0.3048217895
 H         -0.1683208624       -2.7307528552       -0.4476622166
 H          2.2296509361       -3.1823632716       -0.5999610816
 H          0.6629596053        1.3866826202        0.3393540303
 H         -1.7728540739       -2.1080654691        1.2516295342
 H         -4.2076072609       -1.6990256459        1.4265952043
 H         -3.7675668101        1.8366048691       -0.9404223410
 H          3.3738405255        3.1072784164        0.7191295804
 H          4.3195919634       -2.3343551487       -0.4850214069
          26
        -53.61185961
 C          0.5241607118        1.9248179793        0.3432577566
 C          1.8759747028        2.1747183217        0.4148745911
 C          2.8140383432        1.1657924454        0.1841283253
 C          2.3439963599       -0.1234829011       -0.1258519132
 C          0.9711770974       -0.3591893218       -0.1901179230
 C          0.0480174659        0.6464968195        0.0411548424
 C         -1.3987637529        0.3924664933       -0.0374606206
 C         -2.2480426605        1.2923429737       -0.6818305618
 C         -3.6096946646        1.0713148794       -0.7697995877
 C         -4.1321753496       -0.0719921326       -0.1961358060
 C         -3.3404303168       -0.9932127505        0.4618511871
 C         -1.9839138113       -0.7395581423        0.5250367250
 F         -1.2157163429       -1.6345245843        1.1992201114
 F         -5.4684191609       -0.3035468625       -0.2742134353
 C          3.2335388231       -1.2669371101       -0.3984770931
 O          2.8246374856       -2.3542406625       -0.7744869116
 O          4.5219128861       -1.0389213175       -0.2034003974
 O          4.1299342717        1.4082499602        0.2445519446
 H         -0.1765120242        2.7199903976        0.5432388566
 H          2.2219570253        3.1682994584        0.6571359283
 H          0.6568927354       -1.3610451241       -0.4415848792
 H         -1.8232014651        2.1716875951       -1.1374327410
 H         -4.2609452546        1.7656013622       -1.2737571380
 H         -3.7598556753       -1.8763530116        0.9136271838
 H          5.0663774282       -1.8254653075       -0.3982284314
 H          4.3079883532        2.3396538582        0.4588019941
          26
        -53.61843300
 C          0.5290186604        1.9320580888       -0.3389256928
 C          1.8760472118        2.1916436495       -0.4185023812
 C          2.8157800442        1.1804309909       -0.1940358638
 C          2.3526013603       -0.1134618978        0.1182205571
 C          0.9788563335       -0.3601829578        0.1873295014
 C          0.0586677449        0.6475086611       -0.0382388590
 C         -1.3885879045        0.3931854168        0.0416695833
 C         -2.2375975303        1.2942648755        0.6848012324
 C         -3.5996543717        1.0749870168        0.7709057913
 C         -4.1234192466       -0.0672473130        0.1960728468
 C         -3.3319372338       -0.9902676766       -0.4596659009
 C         -1.9749768661       -0.7386133742       -0.5203059069
 F         -1.2062636479       -1.6376934908       -1.1879723555
 F         -5.4600438034       -0.2966205152        0.2718804291
 C          3.3090661426       -1.1934357535        0.3685905126
 O          4.5274987466       -1.0513470111        0.3022115517
 O          2.7679618153       -2.3583574648        0.6810994100
 O          4.1121150867        1.4959353380       -0.2867693262
 H         -0.1773814577        2.7235599276       -0.5330128198
 H          2.2443177519        3.1757022850       -0.6588229616
 H          0.6529785722       -1.3579317138        0.4348334780
 H         -1.8121247700        2.1731705558        1.1406406824
 H         -4.2504445069        1.7703829530        1.2739102868
 H         -3.7523433764       -1.8726267237       -0.9120561538
 H          3.4436123821       -3.0466126748        0.8356027645
 H          4.6639213766        0.7004858309       -0.1120303878
