 xtb: 6.7.1 (edcfbbe)
          04092505213D

 41 40  0     0  0            999 V2000
    2.5571   -0.3246   -3.0335 C   0  0  0  0  0  0  0  0  0  0  0  0
    3.2504   -0.5594   -1.7079 C   0  0  0  0  0  0  0  0  0  0  0  0
    2.7192    0.3847   -0.7417 O   0  0  0  0  0  0  0  0  0  0  0  0
    2.4678    0.0175    0.7687 P   0  0  0  0  0  0  0  0  0  0  0  0
    1.7971    1.5416    1.7912 S   0  0  0  0  0  0  0  0  0  0  0  0
    3.8882   -0.5499    1.2067 O   0  0  0  0  0  0  0  0  0  0  0  0
    4.2936   -0.6869    2.5812 C   0  0  0  0  0  0  0  0  0  0  0  0
    3.4531   -1.6957    3.3365 C   0  0  0  0  0  0  0  0  0  0  0  0
    1.2141   -1.7095    0.7454 S   0  0  0  0  0  0  0  0  0  0  0  0
   -0.3413   -0.8113    0.7075 C   0  0  0  0  0  0  0  0  0  0  0  0
   -0.5999   -0.0592   -0.9420 S   0  0  0  0  0  0  0  0  0  0  0  0
   -2.6625    0.3650   -0.6792 P   0  0  0  0  0  0  0  0  0  0  0  0
   -3.5820    1.2250   -2.1775 S   0  0  0  0  0  0  0  0  0  0  0  0
   -2.7297    1.1121    0.7230 O   0  0  0  0  0  0  0  0  0  0  0  0
   -2.7588    2.5472    0.8068 C   0  0  0  0  0  0  0  0  0  0  0  0
   -1.4531    3.1772    0.3638 C   0  0  0  0  0  0  0  0  0  0  0  0
   -3.2841   -1.0062   -0.1694 O   0  0  0  0  0  0  0  0  0  0  0  0
   -3.8551   -1.9590   -1.0862 C   0  0  0  0  0  0  0  0  0  0  0  0
   -2.8030   -2.6202   -1.9549 C   0  0  0  0  0  0  0  0  0  0  0  0
    1.4876   -0.4931   -2.9319 H   0  0  0  0  0  0  0  0  0  0  0  0
    2.7154    0.6989   -3.3605 H   0  0  0  0  0  0  0  0  0  0  0  0
    2.9618   -1.0071   -3.7736 H   0  0  0  0  0  0  0  0  0  0  0  0
    4.3239   -0.3746   -1.7743 H   0  0  0  0  0  0  0  0  0  0  0  0
    3.0786   -1.5757   -1.3418 H   0  0  0  0  0  0  0  0  0  0  0  0
    5.3355   -1.0025    2.5110 H   0  0  0  0  0  0  0  0  0  0  0  0
    4.2346    0.2969    3.0568 H   0  0  0  0  0  0  0  0  0  0  0  0
    3.8871   -1.8570    4.3181 H   0  0  0  0  0  0  0  0  0  0  0  0
    2.4383   -1.3205    3.4587 H   0  0  0  0  0  0  0  0  0  0  0  0
    3.4170   -2.6391    2.7976 H   0  0  0  0  0  0  0  0  0  0  0  0
   -0.3132   -0.0193    1.4579 H   0  0  0  0  0  0  0  0  0  0  0  0
   -1.1392   -1.5216    0.9091 H   0  0  0  0  0  0  0  0  0  0  0  0
   -3.5856    2.9135    0.1898 H   0  0  0  0  0  0  0  0  0  0  0  0
   -2.9637    2.7457    1.8596 H   0  0  0  0  0  0  0  0  0  0  0  0
   -1.5095    4.2526    0.4987 H   0  0  0  0  0  0  0  0  0  0  0  0
   -0.6168    2.7940    0.9458 H   0  0  0  0  0  0  0  0  0  0  0  0
   -1.2756    2.9647   -0.6908 H   0  0  0  0  0  0  0  0  0  0  0  0
   -4.3550   -2.6787   -0.4364 H   0  0  0  0  0  0  0  0  0  0  0  0
   -4.5944   -1.4424   -1.7064 H   0  0  0  0  0  0  0  0  0  0  0  0
   -2.0293   -3.0777   -1.3429 H   0  0  0  0  0  0  0  0  0  0  0  0
   -3.2738   -3.3845   -2.5649 H   0  0  0  0  0  0  0  0  0  0  0  0
   -2.3448   -1.8798   -2.6101 H   0  0  0  0  0  0  0  0  0  0  0  0
  1  2  1  0  0  0  0
  2  3  1  0  0  0  0
  3  4  2  0  0  0  0
  4  5  2  0  0  0  0
  4  6  2  0  0  0  0
  6  7  1  0  0  0  0
  7  8  1  0  0  0  0
  4  9  1  0  0  0  0
  9 10  1  0  0  0  0
 10 11  1  0  0  0  0
 11 12  1  0  0  0  0
 12 13  2  0  0  0  0
 12 14  2  0  0  0  0
 14 15  1  0  0  0  0
 15 16  1  0  0  0  0
 12 17  2  0  0  0  0
 17 18  1  0  0  0  0
 18 19  1  0  0  0  0
  1 20  1  0  0  0  0
  1 21  1  0  0  0  0
  1 22  1  0  0  0  0
  2 23  1  0  0  0  0
  2 24  1  0  0  0  0
  7 25  1  0  0  0  0
  7 26  1  0  0  0  0
  8 27  1  0  0  0  0
  8 28  1  0  0  0  0
  8 29  1  0  0  0  0
 10 30  1  0  0  0  0
 10 31  1  0  0  0  0
 15 32  1  0  0  0  0
 15 33  1  0  0  0  0
 16 34  1  0  0  0  0
 16 35  1  0  0  0  0
 16 36  1  0  0  0  0
 18 37  1  0  0  0  0
 18 38  1  0  0  0  0
 19 39  1  0  0  0  0
 19 40  1  0  0  0  0
 19 41  1  0  0  0  0
M  END
