 xtb: 6.7.1 (edcfbbe)
          04092507313D

 38 37  0     0  0            999 V2000
    2.9402   -3.7797    0.4664 C   0  0  0  0  0  0  0  0  0  0  0  0
    2.7946   -2.2921    0.7141 C   0  0  0  0  0  0  0  0  0  0  0  0
    2.3436   -1.6813   -0.5100 O   0  0  0  0  0  0  0  0  0  0  0  0
    2.1129   -0.3891   -0.5142 C   0  0  0  0  0  0  0  0  0  0  0  0
    2.2419    0.3418    0.4471 O   0  0  0  0  0  0  0  0  0  0  0  0
    1.6833    0.1121   -1.8808 C   0  0  0  0  0  0  0  0  0  0  0  0
    0.3363    0.8355   -1.7942 C   0  0  0  0  0  0  0  0  0  0  0  0
    0.1750    1.4219   -2.7019 H   0  0  0  0  0  0  0  0  0  0  0  0
    0.2755    1.7556   -0.5902 C   0  0  0  0  0  0  0  0  0  0  0  0
   -0.5197    1.5787    0.3176 O   0  0  0  0  0  0  0  0  0  0  0  0
    1.1036    2.7479   -0.6923 O   0  0  0  0  0  0  0  0  0  0  0  0
    1.2501    3.6817    0.4022 C   0  0  0  0  0  0  0  0  0  0  0  0
    2.6898    3.6534    0.8827 C   0  0  0  0  0  0  0  0  0  0  0  0
   -1.0675   -0.3251   -1.7261 S   0  0  0  0  0  0  0  0  0  0  0  0
   -1.6289   -0.5832    0.3169 P   0  0  0  0  0  0  0  0  0  0  0  0
   -0.4402   -0.9516    1.8297 S   0  0  0  0  0  0  0  0  0  0  0  0
   -2.8985    0.3638    0.5830 O   0  0  0  0  0  0  0  0  0  0  0  0
   -2.9716    1.4317    1.5243 C   0  0  0  0  0  0  0  0  0  0  0  0
   -2.4024   -1.9692    0.0869 O   0  0  0  0  0  0  0  0  0  0  0  0
   -3.4939   -2.1562   -0.8288 C   0  0  0  0  0  0  0  0  0  0  0  0
    3.2963   -4.2582    1.3723 H   0  0  0  0  0  0  0  0  0  0  0  0
    1.9782   -4.2037    0.1940 H   0  0  0  0  0  0  0  0  0  0  0  0
    3.6468   -3.9562   -0.3390 H   0  0  0  0  0  0  0  0  0  0  0  0
    3.7448   -1.8275    0.9953 H   0  0  0  0  0  0  0  0  0  0  0  0
    2.0601   -2.0766    1.4977 H   0  0  0  0  0  0  0  0  0  0  0  0
    1.6153   -0.7244   -2.5744 H   0  0  0  0  0  0  0  0  0  0  0  0
    2.4380    0.8238   -2.2213 H   0  0  0  0  0  0  0  0  0  0  0  0
    0.9818    4.6587   -0.0048 H   0  0  0  0  0  0  0  0  0  0  0  0
    0.5594    3.3997    1.2002 H   0  0  0  0  0  0  0  0  0  0  0  0
    2.8034    4.3404    1.7145 H   0  0  0  0  0  0  0  0  0  0  0  0
    2.9440    2.6481    1.2109 H   0  0  0  0  0  0  0  0  0  0  0  0
    3.3596    3.9438    0.0793 H   0  0  0  0  0  0  0  0  0  0  0  0
   -3.9626    1.3730    1.9703 H   0  0  0  0  0  0  0  0  0  0  0  0
   -2.8349    2.3793    1.0062 H   0  0  0  0  0  0  0  0  0  0  0  0
   -2.2033    1.3154    2.2899 H   0  0  0  0  0  0  0  0  0  0  0  0
   -3.9251   -3.1179   -0.5617 H   0  0  0  0  0  0  0  0  0  0  0  0
   -3.1198   -2.1745   -1.8520 H   0  0  0  0  0  0  0  0  0  0  0  0
   -4.2267   -1.3603   -0.7096 H   0  0  0  0  0  0  0  0  0  0  0  0
  1  2  1  0  0  0  0
  2  3  1  0  0  0  0
  3  4  4  0  0  0  0
  4  5  2  0  0  0  0
  4  6  1  0  0  0  0
  6  7  1  0  0  0  0
  7  8  1  0  0  0  0
  7  9  1  0  0  0  0
  9 10  2  0  0  0  0
  9 11  4  0  0  0  0
 11 12  1  0  0  0  0
 12 13  1  0  0  0  0
  7 14  1  0  0  0  0
 14 15  1  0  0  0  0
 15 16  2  0  0  0  0
 15 17  1  0  0  0  0
 17 18  1  0  0  0  0
 15 19  1  0  0  0  0
 19 20  1  0  0  0  0
  1 21  1  0  0  0  0
  1 22  1  0  0  0  0
  1 23  1  0  0  0  0
  2 24  1  0  0  0  0
  2 25  1  0  0  0  0
  6 26  1  0  0  0  0
  6 27  1  0  0  0  0
 12 28  1  0  0  0  0
 12 29  1  0  0  0  0
 13 30  1  0  0  0  0
 13 31  1  0  0  0  0
 13 32  1  0  0  0  0
 18 33  1  0  0  0  0
 18 34  1  0  0  0  0
 18 35  1  0  0  0  0
 20 36  1  0  0  0  0
 20 37  1  0  0  0  0
 20 38  1  0  0  0  0
M  END
