 xtb: 6.7.1 (edcfbbe)
          04092505213D

 41 40  0     0  0            999 V2000
    4.3625   -0.4960   -2.6966 C   0  0  0  0  0  0  0  0  0  0  0  0
    4.1009   -1.3121   -1.4449 C   0  0  0  0  0  0  0  0  0  0  0  0
    3.7057   -0.4806   -0.3390 O   0  0  0  0  0  0  0  0  0  0  0  0
    2.1972   -0.0563   -0.0430 P   0  0  0  0  0  0  0  0  0  0  0  0
    1.3405    1.0582   -1.4169 S   0  0  0  0  0  0  0  0  0  0  0  0
    2.3921    0.5699    1.3905 O   0  0  0  0  0  0  0  0  0  0  0  0
    2.4849    1.9895    1.6112 C   0  0  0  0  0  0  0  0  0  0  0  0
    3.7917    2.5435    1.0854 C   0  0  0  0  0  0  0  0  0  0  0  0
    1.2630   -1.9066    0.3720 S   0  0  0  0  0  0  0  0  0  0  0  0
   -0.0616   -1.8968   -0.8882 C   0  0  0  0  0  0  0  0  0  0  0  0
   -1.7385   -1.9290   -0.2087 S   0  0  0  0  0  0  0  0  0  0  0  0
   -1.9704    0.1168    0.3409 P   0  0  0  0  0  0  0  0  0  0  0  0
   -0.7676    0.8306    1.7104 S   0  0  0  0  0  0  0  0  0  0  0  0
   -3.5060    0.1495    0.7416 O   0  0  0  0  0  0  0  0  0  0  0  0
   -3.9721   -0.4488    1.9685 C   0  0  0  0  0  0  0  0  0  0  0  0
   -5.3625    0.0847    2.2471 C   0  0  0  0  0  0  0  0  0  0  0  0
   -1.9141    0.9480   -0.9891 O   0  0  0  0  0  0  0  0  0  0  0  0
   -2.7467    0.6936   -2.1503 C   0  0  0  0  0  0  0  0  0  0  0  0
   -3.9869    1.5619   -2.1214 C   0  0  0  0  0  0  0  0  0  0  0  0
    3.4545    0.0088   -3.0185 H   0  0  0  0  0  0  0  0  0  0  0  0
    5.1257    0.2522   -2.5017 H   0  0  0  0  0  0  0  0  0  0  0  0
    4.7019   -1.1565   -3.4879 H   0  0  0  0  0  0  0  0  0  0  0  0
    5.0113   -1.8033   -1.0959 H   0  0  0  0  0  0  0  0  0  0  0  0
    3.3266   -2.0662   -1.6190 H   0  0  0  0  0  0  0  0  0  0  0  0
    1.6272    2.4756    1.1340 H   0  0  0  0  0  0  0  0  0  0  0  0
    2.3956    2.0914    2.6935 H   0  0  0  0  0  0  0  0  0  0  0  0
    3.8307    2.4245    0.0029 H   0  0  0  0  0  0  0  0  0  0  0  0
    3.8609    3.5987    1.3302 H   0  0  0  0  0  0  0  0  0  0  0  0
    4.6281    2.0089    1.5278 H   0  0  0  0  0  0  0  0  0  0  0  0
    0.0308   -2.8112   -1.4678 H   0  0  0  0  0  0  0  0  0  0  0  0
    0.0642   -1.0075   -1.5134 H   0  0  0  0  0  0  0  0  0  0  0  0
   -3.9779   -1.5340    1.8363 H   0  0  0  0  0  0  0  0  0  0  0  0
   -3.2726   -0.1887    2.7699 H   0  0  0  0  0  0  0  0  0  0  0  0
   -6.0302   -0.1722    1.4300 H   0  0  0  0  0  0  0  0  0  0  0  0
   -5.7339   -0.3559    3.1664 H   0  0  0  0  0  0  0  0  0  0  0  0
   -5.3329    1.1655    2.3542 H   0  0  0  0  0  0  0  0  0  0  0  0
   -2.1028    0.9416   -2.9965 H   0  0  0  0  0  0  0  0  0  0  0  0
   -3.0072   -0.3681   -2.1742 H   0  0  0  0  0  0  0  0  0  0  0  0
   -4.6053    1.3066   -1.2653 H   0  0  0  0  0  0  0  0  0  0  0  0
   -3.7062    2.6093   -2.0517 H   0  0  0  0  0  0  0  0  0  0  0  0
   -4.5514    1.4017   -3.0346 H   0  0  0  0  0  0  0  0  0  0  0  0
  1  2  1  0  0  0  0
  2  3  1  0  0  0  0
  3  4  2  0  0  0  0
  4  5  2  0  0  0  0
  4  6  2  0  0  0  0
  6  7  1  0  0  0  0
  7  8  1  0  0  0  0
  4  9  1  0  0  0  0
  9 10  1  0  0  0  0
 10 11  1  0  0  0  0
 11 12  1  0  0  0  0
 12 13  2  0  0  0  0
 12 14  2  0  0  0  0
 14 15  1  0  0  0  0
 15 16  1  0  0  0  0
 12 17  2  0  0  0  0
 17 18  1  0  0  0  0
 18 19  1  0  0  0  0
  1 20  1  0  0  0  0
  1 21  1  0  0  0  0
  1 22  1  0  0  0  0
  2 23  1  0  0  0  0
  2 24  1  0  0  0  0
  7 25  1  0  0  0  0
  7 26  1  0  0  0  0
  8 27  1  0  0  0  0
  8 28  1  0  0  0  0
  8 29  1  0  0  0  0
 10 30  1  0  0  0  0
 10 31  1  0  0  0  0
 15 32  1  0  0  0  0
 15 33  1  0  0  0  0
 16 34  1  0  0  0  0
 16 35  1  0  0  0  0
 16 36  1  0  0  0  0
 18 37  1  0  0  0  0
 18 38  1  0  0  0  0
 19 39  1  0  0  0  0
 19 40  1  0  0  0  0
 19 41  1  0  0  0  0
M  END
