 xtb: 6.7.1 (edcfbbe)
          04092505213D

 41 40  0     0  0            999 V2000
    5.7676   -1.2351   -1.3011 C   0  0  0  0  0  0  0  0  0  0  0  0
    4.9334   -0.0283   -0.9237 C   0  0  0  0  0  0  0  0  0  0  0  0
    3.7059   -0.5040   -0.3261 O   0  0  0  0  0  0  0  0  0  0  0  0
    2.3734    0.3467   -0.3694 P   0  0  0  0  0  0  0  0  0  0  0  0
    1.9312    1.0965   -2.1319 S   0  0  0  0  0  0  0  0  0  0  0  0
    2.6725    1.4237    0.7630 O   0  0  0  0  0  0  0  0  0  0  0  0
    1.8460    2.5668    1.0431 C   0  0  0  0  0  0  0  0  0  0  0  0
    0.9776    2.3127    2.2590 C   0  0  0  0  0  0  0  0  0  0  0  0
    1.0903   -1.0866    0.4725 S   0  0  0  0  0  0  0  0  0  0  0  0
    0.1287   -1.5253   -1.0231 C   0  0  0  0  0  0  0  0  0  0  0  0
   -1.5778   -1.9174   -0.6078 S   0  0  0  0  0  0  0  0  0  0  0  0
   -2.1131   -0.0476    0.2717 P   0  0  0  0  0  0  0  0  0  0  0  0
   -1.3302    1.5454   -0.5599 S   0  0  0  0  0  0  0  0  0  0  0  0
   -1.7807   -0.1160    1.8059 O   0  0  0  0  0  0  0  0  0  0  0  0
   -1.8533   -1.2875    2.6588 C   0  0  0  0  0  0  0  0  0  0  0  0
   -3.2080   -1.9591    2.6234 C   0  0  0  0  0  0  0  0  0  0  0  0
   -3.6987   -0.0879    0.2468 O   0  0  0  0  0  0  0  0  0  0  0  0
   -4.4357    0.0859   -0.9796 C   0  0  0  0  0  0  0  0  0  0  0  0
   -5.8692    0.4168   -0.6169 C   0  0  0  0  0  0  0  0  0  0  0  0
    5.9570   -1.8428   -0.4211 H   0  0  0  0  0  0  0  0  0  0  0  0
    5.2426   -1.8362   -2.0382 H   0  0  0  0  0  0  0  0  0  0  0  0
    6.7111   -0.8991   -1.7188 H   0  0  0  0  0  0  0  0  0  0  0  0
    4.6819    0.5775   -1.8012 H   0  0  0  0  0  0  0  0  0  0  0  0
    5.4411    0.5988   -0.1875 H   0  0  0  0  0  0  0  0  0  0  0  0
    2.5494    3.3821    1.2232 H   0  0  0  0  0  0  0  0  0  0  0  0
    1.2374    2.7993    0.1627 H   0  0  0  0  0  0  0  0  0  0  0  0
    1.5923    1.9856    3.0928 H   0  0  0  0  0  0  0  0  0  0  0  0
    0.4619    3.2302    2.5233 H   0  0  0  0  0  0  0  0  0  0  0  0
    0.2344    1.5468    2.0444 H   0  0  0  0  0  0  0  0  0  0  0  0
    0.5500   -2.4192   -1.4759 H   0  0  0  0  0  0  0  0  0  0  0  0
    0.1614   -0.6756   -1.7115 H   0  0  0  0  0  0  0  0  0  0  0  0
   -1.0594   -1.9741    2.3508 H   0  0  0  0  0  0  0  0  0  0  0  0
   -1.6280   -0.8847    3.6472 H   0  0  0  0  0  0  0  0  0  0  0  0
   -3.2261   -2.7536    3.3629 H   0  0  0  0  0  0  0  0  0  0  0  0
   -3.9898   -1.2387    2.8487 H   0  0  0  0  0  0  0  0  0  0  0  0
   -3.3937   -2.3869    1.6403 H   0  0  0  0  0  0  0  0  0  0  0  0
   -3.9713    0.8928   -1.5570 H   0  0  0  0  0  0  0  0  0  0  0  0
   -4.3715   -0.8444   -1.5502 H   0  0  0  0  0  0  0  0  0  0  0  0
   -5.9042    1.3343   -0.0362 H   0  0  0  0  0  0  0  0  0  0  0  0
   -6.4458    0.5468   -1.5269 H   0  0  0  0  0  0  0  0  0  0  0  0
   -6.2990   -0.3892   -0.0299 H   0  0  0  0  0  0  0  0  0  0  0  0
  1  2  1  0  0  0  0
  2  3  1  0  0  0  0
  3  4  2  0  0  0  0
  4  5  2  0  0  0  0
  4  6  2  0  0  0  0
  6  7  1  0  0  0  0
  7  8  1  0  0  0  0
  4  9  1  0  0  0  0
  9 10  1  0  0  0  0
 10 11  1  0  0  0  0
 11 12  1  0  0  0  0
 12 13  2  0  0  0  0
 12 14  2  0  0  0  0
 14 15  1  0  0  0  0
 15 16  1  0  0  0  0
 12 17  2  0  0  0  0
 17 18  1  0  0  0  0
 18 19  1  0  0  0  0
  1 20  1  0  0  0  0
  1 21  1  0  0  0  0
  1 22  1  0  0  0  0
  2 23  1  0  0  0  0
  2 24  1  0  0  0  0
  7 25  1  0  0  0  0
  7 26  1  0  0  0  0
  8 27  1  0  0  0  0
  8 28  1  0  0  0  0
  8 29  1  0  0  0  0
 10 30  1  0  0  0  0
 10 31  1  0  0  0  0
 15 32  1  0  0  0  0
 15 33  1  0  0  0  0
 16 34  1  0  0  0  0
 16 35  1  0  0  0  0
 16 36  1  0  0  0  0
 18 37  1  0  0  0  0
 18 38  1  0  0  0  0
 19 39  1  0  0  0  0
 19 40  1  0  0  0  0
 19 41  1  0  0  0  0
M  END
