 xtb: 6.7.1 (edcfbbe)
          04092507313D

 38 37  0     0  0            999 V2000
    3.2537   -1.7991    1.5945 C   0  0  0  0  0  0  0  0  0  0  0  0
    2.9949   -2.3756    0.2126 C   0  0  0  0  0  0  0  0  0  0  0  0
    2.7518   -1.3121   -0.7286 O   0  0  0  0  0  0  0  0  0  0  0  0
    1.5383   -1.1030   -1.1862 C   0  0  0  0  0  0  0  0  0  0  0  0
    0.5601   -1.7624   -0.8859 O   0  0  0  0  0  0  0  0  0  0  0  0
    1.5001    0.0642   -2.1495 C   0  0  0  0  0  0  0  0  0  0  0  0
    0.3750    1.0355   -1.7901 C   0  0  0  0  0  0  0  0  0  0  0  0
    0.3352    1.8378   -2.5322 H   0  0  0  0  0  0  0  0  0  0  0  0
    0.5466    1.6540   -0.4161 C   0  0  0  0  0  0  0  0  0  0  0  0
   -0.3838    1.7511    0.3643 O   0  0  0  0  0  0  0  0  0  0  0  0
    1.7690    2.0309   -0.1791 O   0  0  0  0  0  0  0  0  0  0  0  0
    2.0739    2.6124    1.1091 C   0  0  0  0  0  0  0  0  0  0  0  0
    1.7274    4.0911    1.1353 C   0  0  0  0  0  0  0  0  0  0  0  0
   -1.2870    0.2737   -1.8377 S   0  0  0  0  0  0  0  0  0  0  0  0
   -1.5777   -0.4177    0.1461 P   0  0  0  0  0  0  0  0  0  0  0  0
   -0.4051   -0.7781    1.6949 S   0  0  0  0  0  0  0  0  0  0  0  0
   -2.8960    0.3735    0.6195 O   0  0  0  0  0  0  0  0  0  0  0  0
   -2.9398    1.4279    1.5767 C   0  0  0  0  0  0  0  0  0  0  0  0
   -2.2947   -1.7453   -0.3898 O   0  0  0  0  0  0  0  0  0  0  0  0
   -2.8263   -2.7290    0.4981 C   0  0  0  0  0  0  0  0  0  0  0  0
    2.3562   -1.3115    1.9715 H   0  0  0  0  0  0  0  0  0  0  0  0
    3.5226   -2.6027    2.2717 H   0  0  0  0  0  0  0  0  0  0  0  0
    4.0635   -1.0769    1.5513 H   0  0  0  0  0  0  0  0  0  0  0  0
    2.1284   -3.0425    0.2221 H   0  0  0  0  0  0  0  0  0  0  0  0
    3.8731   -2.8987   -0.1695 H   0  0  0  0  0  0  0  0  0  0  0  0
    1.3090   -0.3295   -3.1489 H   0  0  0  0  0  0  0  0  0  0  0  0
    2.4615    0.5765   -2.1246 H   0  0  0  0  0  0  0  0  0  0  0  0
    1.5224    2.0626    1.8772 H   0  0  0  0  0  0  0  0  0  0  0  0
    3.1454    2.4504    1.2222 H   0  0  0  0  0  0  0  0  0  0  0  0
    0.6552    4.2294    1.0178 H   0  0  0  0  0  0  0  0  0  0  0  0
    2.0315    4.5092    2.0890 H   0  0  0  0  0  0  0  0  0  0  0  0
    2.2443    4.6114    0.3340 H   0  0  0  0  0  0  0  0  0  0  0  0
   -2.1783    1.2697    2.3426 H   0  0  0  0  0  0  0  0  0  0  0  0
   -3.9354    1.3920    2.0131 H   0  0  0  0  0  0  0  0  0  0  0  0
   -2.7667    2.3809    1.0805 H   0  0  0  0  0  0  0  0  0  0  0  0
   -2.1107   -2.9427    1.2955 H   0  0  0  0  0  0  0  0  0  0  0  0
   -2.9911   -3.6153   -0.1094 H   0  0  0  0  0  0  0  0  0  0  0  0
   -3.7633   -2.3749    0.9287 H   0  0  0  0  0  0  0  0  0  0  0  0
  1  2  1  0  0  0  0
  2  3  1  0  0  0  0
  3  4  4  0  0  0  0
  4  5  2  0  0  0  0
  4  6  1  0  0  0  0
  6  7  1  0  0  0  0
  7  8  1  0  0  0  0
  7  9  1  0  0  0  0
  9 10  2  0  0  0  0
  9 11  4  0  0  0  0
 11 12  1  0  0  0  0
 12 13  1  0  0  0  0
  7 14  1  0  0  0  0
 14 15  1  0  0  0  0
 15 16  2  0  0  0  0
 15 17  1  0  0  0  0
 17 18  1  0  0  0  0
 15 19  1  0  0  0  0
 19 20  1  0  0  0  0
  1 21  1  0  0  0  0
  1 22  1  0  0  0  0
  1 23  1  0  0  0  0
  2 24  1  0  0  0  0
  2 25  1  0  0  0  0
  6 26  1  0  0  0  0
  6 27  1  0  0  0  0
 12 28  1  0  0  0  0
 12 29  1  0  0  0  0
 13 30  1  0  0  0  0
 13 31  1  0  0  0  0
 13 32  1  0  0  0  0
 18 33  1  0  0  0  0
 18 34  1  0  0  0  0
 18 35  1  0  0  0  0
 20 36  1  0  0  0  0
 20 37  1  0  0  0  0
 20 38  1  0  0  0  0
M  END
