  22
 
 C         -3.5252928892        0.0006253409        0.0008578531
 C         -2.8293550604       -1.1236170792        0.4132702773
 C         -1.4466678950       -1.1252516116        0.4120017204
 C         -0.7354969935       -0.0000558138        0.0002316044
 C         -1.4463030111        1.1254248921       -0.4114283940
 C         -2.8289802664        1.1244795877       -0.4120485014
 C          0.7355794983       -0.0001728025        0.0001749113
 C          1.4465676891       -1.1254371768       -0.4116073002
 C          2.8292509783       -1.1240911061       -0.4126804921
 C          3.5253596935       -0.0000574034        0.0000033681
 C          2.8291738095        1.1239007778        0.4129205475
 C          1.4464956828        1.1251480885        0.4118637352
 H         -4.6048911584        0.0008862314        0.0010636618
 H         -3.3666076790       -2.0020392938        0.7390303556
 H         -0.9104804624       -1.9991509386        0.7515584420
 H         -0.9098224685        1.9990402492       -0.7511965174
 H         -3.3659218013        2.0031590368       -0.7377367840
 H          0.9102393676       -1.9991161815       -0.7516697036
 H          3.3663774755       -2.0025313629       -0.7386702367
 H          4.6049536358       -0.0000027576       -0.0001072829
 H          3.3662323375        2.0023802363        0.7390647980
 H          0.9100861716        1.9987358552        0.7519770543
          22
        -30.76867404
 C         -3.5244564078        0.0006882532        0.0018573443
 C         -2.8276691963        1.1172376611        0.4330055491
 C         -1.4449957274        1.1186255473        0.4290914416
 C         -0.7356651582       -0.0003372636       -0.0014270271
 C         -1.4466511113       -1.1187316731       -0.4306965947
 C         -2.8294064035       -1.1162766938       -0.4315761775
 C          0.7356403392       -0.0006724956       -0.0016946887
 C          1.4459520689        1.1181669153       -0.4310142151
 C          2.8286725053        1.1168151004       -0.4316491888
 C          3.5244834070        0.0004301894        0.0018074487
 C          2.8284080323       -1.1167958291        0.4329595681
 C          1.4456830755       -1.1192750470        0.4288689966
 H         -4.6040360810        0.0010674025        0.0032032103
 H         -3.3641722537        1.9896199193        0.7757058419
 H         -0.9065985895        1.9861152464        0.7817054697
 H         -0.9097404885       -1.9867396896       -0.7844251909
 H         -3.3673349435       -1.9883275477       -0.7729574724
 H          0.9084299007        1.9857002205       -0.7843367782
 H          3.3659963571        1.9892979453       -0.7729245043
 H          4.6040828225        0.0010510830        0.0035067167
 H          3.3654875816       -1.9888886871        0.7751129503
 H          0.9079402298       -1.9874022857        0.7809814072
