 xtb: 6.7.1 (edcfbbe)
          04092505203D

 41 40  0     0  0            999 V2000
    4.4956   -2.3692    0.0078 C   0  0  0  0  0  0  0  0  0  0  0  0
    4.7467   -0.8778    0.0951 C   0  0  0  0  0  0  0  0  0  0  0  0
    3.5849   -0.1609    0.5504 O   0  0  0  0  0  0  0  0  0  0  0  0
    2.2642   -0.0342   -0.3302 P   0  0  0  0  0  0  0  0  0  0  0  0
    2.6086    0.2329   -2.2470 S   0  0  0  0  0  0  0  0  0  0  0  0
    1.5192    1.1472    0.4246 O   0  0  0  0  0  0  0  0  0  0  0  0
    1.7854    2.5333    0.1233 C   0  0  0  0  0  0  0  0  0  0  0  0
    0.6523    3.3636    0.6897 C   0  0  0  0  0  0  0  0  0  0  0  0
    1.0710   -1.6522    0.2616 S   0  0  0  0  0  0  0  0  0  0  0  0
   -0.1393   -1.5769   -1.0967 C   0  0  0  0  0  0  0  0  0  0  0  0
   -0.8392    0.0689   -1.4062 S   0  0  0  0  0  0  0  0  0  0  0  0
   -2.1286    0.2443    0.2595 P   0  0  0  0  0  0  0  0  0  0  0  0
   -3.2259    1.8633    0.3465 S   0  0  0  0  0  0  0  0  0  0  0  0
   -1.0796    0.0444    1.4272 O   0  0  0  0  0  0  0  0  0  0  0  0
   -1.3461    0.4606    2.7800 C   0  0  0  0  0  0  0  0  0  0  0  0
   -2.3835   -0.4197    3.4445 C   0  0  0  0  0  0  0  0  0  0  0  0
   -2.9397   -1.1306    0.3109 O   0  0  0  0  0  0  0  0  0  0  0  0
   -4.2244   -1.2759   -0.3149 C   0  0  0  0  0  0  0  0  0  0  0  0
   -4.1225   -1.2934   -1.8272 C   0  0  0  0  0  0  0  0  0  0  0  0
    3.7734   -2.5778   -0.7803 H   0  0  0  0  0  0  0  0  0  0  0  0
    5.4264   -2.8769   -0.2237 H   0  0  0  0  0  0  0  0  0  0  0  0
    4.1033   -2.7425    0.9504 H   0  0  0  0  0  0  0  0  0  0  0  0
    5.0358   -0.4781   -0.8822 H   0  0  0  0  0  0  0  0  0  0  0  0
    5.5096   -0.6377    0.8367 H   0  0  0  0  0  0  0  0  0  0  0  0
    2.7427    2.8026    0.5768 H   0  0  0  0  0  0  0  0  0  0  0  0
    1.8591    2.6444   -0.9644 H   0  0  0  0  0  0  0  0  0  0  0  0
   -0.2959    3.0631    0.2472 H   0  0  0  0  0  0  0  0  0  0  0  0
    0.5929    3.2300    1.7663 H   0  0  0  0  0  0  0  0  0  0  0  0
    0.8288    4.4103    0.4649 H   0  0  0  0  0  0  0  0  0  0  0  0
   -0.9301   -2.2761   -0.8362 H   0  0  0  0  0  0  0  0  0  0  0  0
    0.3496   -1.8548   -2.0289 H   0  0  0  0  0  0  0  0  0  0  0  0
   -0.3740    0.3852    3.2700 H   0  0  0  0  0  0  0  0  0  0  0  0
   -1.6761    1.5045    2.7622 H   0  0  0  0  0  0  0  0  0  0  0  0
   -2.0939   -1.4643    3.3657 H   0  0  0  0  0  0  0  0  0  0  0  0
   -2.4699   -0.1453    4.4912 H   0  0  0  0  0  0  0  0  0  0  0  0
   -3.3498   -0.2818    2.9616 H   0  0  0  0  0  0  0  0  0  0  0  0
   -4.6052   -2.2205    0.0760 H   0  0  0  0  0  0  0  0  0  0  0  0
   -4.8644   -0.4506    0.0133 H   0  0  0  0  0  0  0  0  0  0  0  0
   -3.7421   -0.3365   -2.1844 H   0  0  0  0  0  0  0  0  0  0  0  0
   -3.4532   -2.0828   -2.1595 H   0  0  0  0  0  0  0  0  0  0  0  0
   -5.1079   -1.4587   -2.2507 H   0  0  0  0  0  0  0  0  0  0  0  0
  1  2  1  0  0  0  0
  2  3  1  0  0  0  0
  3  4  2  0  0  0  0
  4  5  2  0  0  0  0
  4  6  2  0  0  0  0
  6  7  1  0  0  0  0
  7  8  1  0  0  0  0
  4  9  1  0  0  0  0
  9 10  1  0  0  0  0
 10 11  1  0  0  0  0
 11 12  1  0  0  0  0
 12 13  2  0  0  0  0
 12 14  2  0  0  0  0
 14 15  1  0  0  0  0
 15 16  1  0  0  0  0
 12 17  2  0  0  0  0
 17 18  1  0  0  0  0
 18 19  1  0  0  0  0
  1 20  1  0  0  0  0
  1 21  1  0  0  0  0
  1 22  1  0  0  0  0
  2 23  1  0  0  0  0
  2 24  1  0  0  0  0
  7 25  1  0  0  0  0
  7 26  1  0  0  0  0
  8 27  1  0  0  0  0
  8 28  1  0  0  0  0
  8 29  1  0  0  0  0
 10 30  1  0  0  0  0
 10 31  1  0  0  0  0
 15 32  1  0  0  0  0
 15 33  1  0  0  0  0
 16 34  1  0  0  0  0
 16 35  1  0  0  0  0
 16 36  1  0  0  0  0
 18 37  1  0  0  0  0
 18 38  1  0  0  0  0
 19 39  1  0  0  0  0
 19 40  1  0  0  0  0
 19 41  1  0  0  0  0
M  END
