 xtb: 6.7.1 (edcfbbe)
          04032519433D

  9  8  0     0  0            999 V2000
   -1.8372   -0.6343   -0.1314 C   0  0  0  0  0  0  0  0  0  0  0  0
   -1.3617    0.5337    0.2535 C   0  0  0  0  0  0  0  0  0  0  0  0
    0.0703    0.9431    0.3259 C   0  0  0  0  0  0  0  0  0  0  0  0
    1.2166   -0.3439   -0.1799 Cl  0  0  0  0  0  0  0  0  0  0  0  0
   -2.8936   -0.8333   -0.1486 H   0  0  0  0  0  0  0  0  0  0  0  0
   -1.1910   -1.4371   -0.4439 H   0  0  0  0  0  0  0  0  0  0  0  0
   -2.0292    1.3269    0.5635 H   0  0  0  0  0  0  0  0  0  0  0  0
    0.2594    1.7942   -0.3298 H   0  0  0  0  0  0  0  0  0  0  0  0
    0.3422    1.2080    1.3486 H   0  0  0  0  0  0  0  0  0  0  0  0
  1  2  2  0  0  0  0
  2  3  1  0  0  0  0
  3  4  1  0  0  0  0
  1  5  1  0  0  0  0
  1  6  1  0  0  0  0
  2  7  1  0  0  0  0
  3  8  1  0  0  0  0
  3  9  1  0  0  0  0
M  END
