 xtb: 6.7.1 (edcfbbe)
          04092513593D

 41 40  0     0  0            999 V2000
    5.0797   -2.3495   -1.4594 C   0  0  0  0  0  0  0  0  0  0  0  0
    4.1121   -1.1869   -1.5553 C   0  0  0  0  0  0  0  0  0  0  0  0
    3.1050   -1.3591   -0.5355 O   0  0  0  0  0  0  0  0  0  0  0  0
    2.1514   -0.1700   -0.0912 P   0  0  0  0  0  0  0  0  0  0  0  0
    3.0581    1.5224    0.3160 S   0  0  0  0  0  0  0  0  0  0  0  0
    1.3345   -0.8488    1.0796 O   0  0  0  0  0  0  0  0  0  0  0  0
    1.6148   -0.5975    2.4717 C   0  0  0  0  0  0  0  0  0  0  0  0
    2.8542   -1.3380    2.9276 C   0  0  0  0  0  0  0  0  0  0  0  0
    0.7023   -0.1212   -1.6322 S   0  0  0  0  0  0  0  0  0  0  0  0
    0.0487    1.5373   -1.2843 C   0  0  0  0  0  0  0  0  0  0  0  0
   -0.6862    1.6942    0.3621 S   0  0  0  0  0  0  0  0  0  0  0  0
   -2.2805    0.3148    0.0724 P   0  0  0  0  0  0  0  0  0  0  0  0
   -3.0505    0.2561   -1.7323 S   0  0  0  0  0  0  0  0  0  0  0  0
   -3.2462    0.6297    1.2883 O   0  0  0  0  0  0  0  0  0  0  0  0
   -3.7288    1.9302    1.6757 C   0  0  0  0  0  0  0  0  0  0  0  0
   -4.5169    2.6203    0.5806 C   0  0  0  0  0  0  0  0  0  0  0  0
   -1.6938   -1.0596    0.5959 O   0  0  0  0  0  0  0  0  0  0  0  0
   -1.7463   -2.2959   -0.1365 C   0  0  0  0  0  0  0  0  0  0  0  0
   -2.9841   -3.0831    0.2433 C   0  0  0  0  0  0  0  0  0  0  0  0
    5.5708   -2.3522   -0.4906 H   0  0  0  0  0  0  0  0  0  0  0  0
    4.5466   -3.2871   -1.5871 H   0  0  0  0  0  0  0  0  0  0  0  0
    5.8284   -2.2530   -2.2391 H   0  0  0  0  0  0  0  0  0  0  0  0
    3.6138   -1.1630   -2.5283 H   0  0  0  0  0  0  0  0  0  0  0  0
    4.6166   -0.2293   -1.3883 H   0  0  0  0  0  0  0  0  0  0  0  0
    1.7307    0.4821    2.6153 H   0  0  0  0  0  0  0  0  0  0  0  0
    0.7172   -0.9429    2.9869 H   0  0  0  0  0  0  0  0  0  0  0  0
    3.7274   -0.9522    2.4029 H   0  0  0  0  0  0  0  0  0  0  0  0
    2.9886   -1.1902    3.9947 H   0  0  0  0  0  0  0  0  0  0  0  0
    2.7580   -2.3998    2.7174 H   0  0  0  0  0  0  0  0  0  0  0  0
   -0.7075    1.7288   -2.0453 H   0  0  0  0  0  0  0  0  0  0  0  0
    0.8568    2.2665   -1.3289 H   0  0  0  0  0  0  0  0  0  0  0  0
   -4.3574    1.7187    2.5428 H   0  0  0  0  0  0  0  0  0  0  0  0
   -2.8727    2.5392    1.9799 H   0  0  0  0  0  0  0  0  0  0  0  0
   -5.3292    1.9840    0.2379 H   0  0  0  0  0  0  0  0  0  0  0  0
   -4.9273    3.5480    0.9673 H   0  0  0  0  0  0  0  0  0  0  0  0
   -3.8721    2.8446   -0.2675 H   0  0  0  0  0  0  0  0  0  0  0  0
   -1.7372   -2.0804   -1.2106 H   0  0  0  0  0  0  0  0  0  0  0  0
   -0.8285   -2.8197    0.1375 H   0  0  0  0  0  0  0  0  0  0  0  0
   -3.8750   -2.5301   -0.0496 H   0  0  0  0  0  0  0  0  0  0  0  0
   -2.9733   -4.0389   -0.2709 H   0  0  0  0  0  0  0  0  0  0  0  0
   -3.0101   -3.2482    1.3167 H   0  0  0  0  0  0  0  0  0  0  0  0
  1  2  1  0  0  0  0
  2  3  1  0  0  0  0
  3  4  2  0  0  0  0
  4  5  2  0  0  0  0
  4  6  2  0  0  0  0
  6  7  1  0  0  0  0
  7  8  1  0  0  0  0
  4  9  1  0  0  0  0
  9 10  1  0  0  0  0
 10 11  1  0  0  0  0
 11 12  1  0  0  0  0
 12 13  2  0  0  0  0
 12 14  2  0  0  0  0
 14 15  1  0  0  0  0
 15 16  1  0  0  0  0
 12 17  2  0  0  0  0
 17 18  1  0  0  0  0
 18 19  1  0  0  0  0
  1 20  1  0  0  0  0
  1 21  1  0  0  0  0
  1 22  1  0  0  0  0
  2 23  1  0  0  0  0
  2 24  1  0  0  0  0
  7 25  1  0  0  0  0
  7 26  1  0  0  0  0
  8 27  1  0  0  0  0
  8 28  1  0  0  0  0
  8 29  1  0  0  0  0
 10 30  1  0  0  0  0
 10 31  1  0  0  0  0
 15 32  1  0  0  0  0
 15 33  1  0  0  0  0
 16 34  1  0  0  0  0
 16 35  1  0  0  0  0
 16 36  1  0  0  0  0
 18 37  1  0  0  0  0
 18 38  1  0  0  0  0
 19 39  1  0  0  0  0
 19 40  1  0  0  0  0
 19 41  1  0  0  0  0
M  END
