 xtb: 6.7.1 (edcfbbe)
          04092505213D

 41 40  0     0  0            999 V2000
    3.4758    1.9218   -1.0036 C   0  0  0  0  0  0  0  0  0  0  0  0
    3.6152    0.9189    0.1241 C   0  0  0  0  0  0  0  0  0  0  0  0
    2.9458   -0.3136   -0.2106 O   0  0  0  0  0  0  0  0  0  0  0  0
    1.7290   -0.9545    0.5929 P   0  0  0  0  0  0  0  0  0  0  0  0
    1.1582    0.0671    2.1692 S   0  0  0  0  0  0  0  0  0  0  0  0
    2.1539   -2.4532    0.9119 O   0  0  0  0  0  0  0  0  0  0  0  0
    2.7600   -2.8294    2.1622 C   0  0  0  0  0  0  0  0  0  0  0  0
    4.1675   -2.2821    2.2890 C   0  0  0  0  0  0  0  0  0  0  0  0
    0.4231   -1.5217   -0.9651 S   0  0  0  0  0  0  0  0  0  0  0  0
    0.3948    0.0279   -1.9128 C   0  0  0  0  0  0  0  0  0  0  0  0
   -0.1171    1.4598   -0.9248 S   0  0  0  0  0  0  0  0  0  0  0  0
   -2.0843    0.8156   -0.5478 P   0  0  0  0  0  0  0  0  0  0  0  0
   -2.9948   -0.1626   -1.9878 S   0  0  0  0  0  0  0  0  0  0  0  0
   -2.8038    2.1203    0.0030 O   0  0  0  0  0  0  0  0  0  0  0  0
   -2.8023    3.4151   -0.6304 C   0  0  0  0  0  0  0  0  0  0  0  0
   -3.1919    3.3608   -2.0929 C   0  0  0  0  0  0  0  0  0  0  0  0
   -1.9365   -0.0058    0.7987 O   0  0  0  0  0  0  0  0  0  0  0  0
   -2.7971   -1.0942    1.1904 C   0  0  0  0  0  0  0  0  0  0  0  0
   -1.9664   -2.1484    1.8940 C   0  0  0  0  0  0  0  0  0  0  0  0
    2.4362    2.2228   -1.1211 H   0  0  0  0  0  0  0  0  0  0  0  0
    4.0696    2.7986   -0.7663 H   0  0  0  0  0  0  0  0  0  0  0  0
    3.8341    1.4913   -1.9347 H   0  0  0  0  0  0  0  0  0  0  0  0
    3.1901    1.3103    1.0548 H   0  0  0  0  0  0  0  0  0  0  0  0
    4.6619    0.6510    0.2832 H   0  0  0  0  0  0  0  0  0  0  0  0
    2.1299   -2.4633    2.9795 H   0  0  0  0  0  0  0  0  0  0  0  0
    2.7481   -3.9199    2.1433 H   0  0  0  0  0  0  0  0  0  0  0  0
    4.7584   -2.5641    1.4214 H   0  0  0  0  0  0  0  0  0  0  0  0
    4.1346   -1.1954    2.3612 H   0  0  0  0  0  0  0  0  0  0  0  0
    4.6303   -2.6806    3.1864 H   0  0  0  0  0  0  0  0  0  0  0  0
   -0.3232   -0.1307   -2.7182 H   0  0  0  0  0  0  0  0  0  0  0  0
    1.3871    0.2445   -2.3003 H   0  0  0  0  0  0  0  0  0  0  0  0
   -3.5253    3.9857   -0.0447 H   0  0  0  0  0  0  0  0  0  0  0  0
   -1.8050    3.8474   -0.5094 H   0  0  0  0  0  0  0  0  0  0  0  0
   -3.2575    4.3710   -2.4840 H   0  0  0  0  0  0  0  0  0  0  0  0
   -2.4458    2.8073   -2.6617 H   0  0  0  0  0  0  0  0  0  0  0  0
   -4.1526    2.8651   -2.2119 H   0  0  0  0  0  0  0  0  0  0  0  0
   -3.5545   -0.6783    1.8588 H   0  0  0  0  0  0  0  0  0  0  0  0
   -3.2833   -1.4991    0.2955 H   0  0  0  0  0  0  0  0  0  0  0  0
   -2.6235   -2.9235    2.2743 H   0  0  0  0  0  0  0  0  0  0  0  0
   -1.2510   -2.5928    1.2043 H   0  0  0  0  0  0  0  0  0  0  0  0
   -1.4225   -1.6964    2.7201 H   0  0  0  0  0  0  0  0  0  0  0  0
  1  2  1  0  0  0  0
  2  3  1  0  0  0  0
  3  4  2  0  0  0  0
  4  5  2  0  0  0  0
  4  6  2  0  0  0  0
  6  7  1  0  0  0  0
  7  8  1  0  0  0  0
  4  9  1  0  0  0  0
  9 10  1  0  0  0  0
 10 11  1  0  0  0  0
 11 12  1  0  0  0  0
 12 13  2  0  0  0  0
 12 14  2  0  0  0  0
 14 15  1  0  0  0  0
 15 16  1  0  0  0  0
 12 17  2  0  0  0  0
 17 18  1  0  0  0  0
 18 19  1  0  0  0  0
  1 20  1  0  0  0  0
  1 21  1  0  0  0  0
  1 22  1  0  0  0  0
  2 23  1  0  0  0  0
  2 24  1  0  0  0  0
  7 25  1  0  0  0  0
  7 26  1  0  0  0  0
  8 27  1  0  0  0  0
  8 28  1  0  0  0  0
  8 29  1  0  0  0  0
 10 30  1  0  0  0  0
 10 31  1  0  0  0  0
 15 32  1  0  0  0  0
 15 33  1  0  0  0  0
 16 34  1  0  0  0  0
 16 35  1  0  0  0  0
 16 36  1  0  0  0  0
 18 37  1  0  0  0  0
 18 38  1  0  0  0  0
 19 39  1  0  0  0  0
 19 40  1  0  0  0  0
 19 41  1  0  0  0  0
M  END
