 xtb: 6.7.1 (edcfbbe)
          04032519423D

 20 20  0     0  0            999 V2000
    0.6262    1.6913   -0.0381 C   0  0  0  0  0  0  0  0  0  0  0  0
    1.4109    0.3838   -0.2351 C   0  0  0  0  0  0  0  0  0  0  0  0
    1.6552    0.2486   -1.2942 H   0  0  0  0  0  0  0  0  0  0  0  0
    0.5336   -0.7952    0.2115 C   0  0  0  0  0  0  0  0  0  0  0  0
    0.3229   -0.7152    1.2903 H   0  0  0  0  0  0  0  0  0  0  0  0
   -0.8087   -0.7322   -0.5318 C   0  0  0  0  0  0  0  0  0  0  0  0
   -0.6101   -0.8123   -1.6118 H   0  0  0  0  0  0  0  0  0  0  0  0
   -1.4728    0.6361   -0.2790 C   0  0  0  0  0  0  0  0  0  0  0  0
   -2.3647    0.7383   -0.9154 H   0  0  0  0  0  0  0  0  0  0  0  0
   -0.6243    1.6746   -0.7098 O   0  0  0  0  0  0  0  0  0  0  0  0
   -1.7945    0.7371    1.0688 O   0  0  0  0  0  0  0  0  0  0  0  0
   -1.5868   -1.8093   -0.0815 O   0  0  0  0  0  0  0  0  0  0  0  0
    1.2077   -1.9970   -0.0636 O   0  0  0  0  0  0  0  0  0  0  0  0
    2.6458    0.4306    0.4266 O   0  0  0  0  0  0  0  0  0  0  0  0
    1.1752    2.5323   -0.4601 H   0  0  0  0  0  0  0  0  0  0  0  0
    0.4683    1.8542    1.0356 H   0  0  0  0  0  0  0  0  0  0  0  0
   -2.3474    1.5179    1.2266 H   0  0  0  0  0  0  0  0  0  0  0  0
   -2.4388   -1.8259   -0.5393 H   0  0  0  0  0  0  0  0  0  0  0  0
    0.5993   -2.7309    0.1122 H   0  0  0  0  0  0  0  0  0  0  0  0
    2.5081    0.3867    1.3843 H   0  0  0  0  0  0  0  0  0  0  0  0
  1  2  1  0  0  0  0
  2  3  1  0  0  0  0
  2  4  1  0  0  0  0
  4  5  1  0  0  0  0
  4  6  1  0  0  0  0
  6  7  1  0  0  0  0
  6  8  1  0  0  0  0
  8  9  1  0  0  0  0
  1 10  1  0  0  0  0
  8 10  1  0  0  0  0
  8 11  1  0  0  0  0
  6 12  1  0  0  0  0
  4 13  1  0  0  0  0
  2 14  1  0  0  0  0
  1 15  1  0  0  0  0
  1 16  1  0  0  0  0
 11 17  1  0  0  0  0
 12 18  1  0  0  0  0
 13 19  1  0  0  0  0
 14 20  1  0  0  0  0
M  END
