 xtb: 6.7.1 (edcfbbe)
          04092507313D

 38 37  0     0  0            999 V2000
    5.3640   -2.1838   -0.8030 C   0  0  0  0  0  0  0  0  0  0  0  0
    4.6377   -1.0859   -0.0422 C   0  0  0  0  0  0  0  0  0  0  0  0
    3.2143   -1.3099   -0.0472 O   0  0  0  0  0  0  0  0  0  0  0  0
    2.5095   -0.8345   -1.0503 C   0  0  0  0  0  0  0  0  0  0  0  0
    2.9624   -0.1974   -1.9762 O   0  0  0  0  0  0  0  0  0  0  0  0
    1.0393   -1.1903   -0.9126 C   0  0  0  0  0  0  0  0  0  0  0  0
    0.1945   -0.0061   -1.3624 C   0  0  0  0  0  0  0  0  0  0  0  0
    0.5386    0.3220   -2.3505 H   0  0  0  0  0  0  0  0  0  0  0  0
    0.2878    1.1855   -0.4292 C   0  0  0  0  0  0  0  0  0  0  0  0
   -0.6337    1.9652   -0.2773 O   0  0  0  0  0  0  0  0  0  0  0  0
    1.4535    1.2826    0.1459 O   0  0  0  0  0  0  0  0  0  0  0  0
    1.6535    2.3529    1.0955 C   0  0  0  0  0  0  0  0  0  0  0  0
    2.9145    2.0501    1.8782 C   0  0  0  0  0  0  0  0  0  0  0  0
   -1.5682   -0.4125   -1.5762 S   0  0  0  0  0  0  0  0  0  0  0  0
   -2.2256   -0.1425    0.4051 P   0  0  0  0  0  0  0  0  0  0  0  0
   -1.0211   -0.3007    1.9372 S   0  0  0  0  0  0  0  0  0  0  0  0
   -3.1244    1.1685    0.5430 O   0  0  0  0  0  0  0  0  0  0  0  0
   -3.9539    1.6378   -0.5339 C   0  0  0  0  0  0  0  0  0  0  0  0
   -3.2929   -1.3481    0.3098 O   0  0  0  0  0  0  0  0  0  0  0  0
   -4.0676   -1.7122    1.4578 C   0  0  0  0  0  0  0  0  0  0  0  0
    5.0822   -2.1601   -1.8531 H   0  0  0  0  0  0  0  0  0  0  0  0
    6.4347   -2.0284   -0.7219 H   0  0  0  0  0  0  0  0  0  0  0  0
    5.1102   -3.1558   -0.3893 H   0  0  0  0  0  0  0  0  0  0  0  0
    4.8365   -0.1082   -0.4899 H   0  0  0  0  0  0  0  0  0  0  0  0
    4.9105   -1.0860    1.0131 H   0  0  0  0  0  0  0  0  0  0  0  0
    0.8314   -1.4674    0.1217 H   0  0  0  0  0  0  0  0  0  0  0  0
    0.8301   -2.0428   -1.5618 H   0  0  0  0  0  0  0  0  0  0  0  0
    1.7305    3.2902    0.5372 H   0  0  0  0  0  0  0  0  0  0  0  0
    0.7712    2.3972    1.7420 H   0  0  0  0  0  0  0  0  0  0  0  0
    3.7656    1.9944    1.2060 H   0  0  0  0  0  0  0  0  0  0  0  0
    3.0803    2.8380    2.6050 H   0  0  0  0  0  0  0  0  0  0  0  0
    2.8070    1.1008    2.3954 H   0  0  0  0  0  0  0  0  0  0  0  0
   -4.7119    2.2611   -0.0663 H   0  0  0  0  0  0  0  0  0  0  0  0
   -4.4090    0.7991   -1.0621 H   0  0  0  0  0  0  0  0  0  0  0  0
   -3.3424    2.2260   -1.2172 H   0  0  0  0  0  0  0  0  0  0  0  0
   -4.6600   -2.5689    1.1478 H   0  0  0  0  0  0  0  0  0  0  0  0
   -4.7120   -0.8869    1.7634 H   0  0  0  0  0  0  0  0  0  0  0  0
   -3.4063   -1.9815    2.2831 H   0  0  0  0  0  0  0  0  0  0  0  0
  1  2  1  0  0  0  0
  2  3  1  0  0  0  0
  3  4  1  0  0  0  0
  4  5  2  0  0  0  0
  4  6  1  0  0  0  0
  6  7  1  0  0  0  0
  7  8  1  0  0  0  0
  7  9  1  0  0  0  0
  9 10  2  0  0  0  0
  9 11  4  0  0  0  0
 11 12  1  0  0  0  0
 12 13  1  0  0  0  0
  7 14  1  0  0  0  0
 14 15  1  0  0  0  0
 15 16  2  0  0  0  0
 15 17  1  0  0  0  0
 17 18  1  0  0  0  0
 15 19  1  0  0  0  0
 19 20  1  0  0  0  0
  1 21  1  0  0  0  0
  1 22  1  0  0  0  0
  1 23  1  0  0  0  0
  2 24  1  0  0  0  0
  2 25  1  0  0  0  0
  6 26  1  0  0  0  0
  6 27  1  0  0  0  0
 12 28  1  0  0  0  0
 12 29  1  0  0  0  0
 13 30  1  0  0  0  0
 13 31  1  0  0  0  0
 13 32  1  0  0  0  0
 18 33  1  0  0  0  0
 18 34  1  0  0  0  0
 18 35  1  0  0  0  0
 20 36  1  0  0  0  0
 20 37  1  0  0  0  0
 20 38  1  0  0  0  0
M  END
