  22
 
 C          2.3611668905       -1.3904506280        0.0000368303
 C          1.1626163239       -0.6993065122        0.0000062192
 C          1.1626567141        0.6992009416       -0.0000213750
 C          2.3612279733        1.3903054559       -0.0000011376
 C          3.5626983586        0.6943583595        0.0000512571
 C          3.5626671851       -0.6945538514        0.0000687600
 Cl         5.0510216536       -1.5694783832        0.0001305171
 Cl         5.0511041600        1.5691699128        0.0001125711
 O         -0.0001410835        1.4268921331       -0.0000968912
 C         -1.1629470889        0.6992561102       -0.0000344372
 C         -2.3614958487        1.3904000198       -0.0000200872
 C         -3.5629947736        0.6944980349        0.0000537885
 C         -3.5630066666       -0.6944056680        0.0001017694
 C         -2.3615396451       -1.3903638707        0.0000864472
 C         -1.1629712309       -0.6992431113        0.0000224913
 O         -0.0002071928       -1.4269315192       -0.0000059647
 Cl        -5.0513860557       -1.5692745415        0.0001522739
 Cl        -5.0513478256        1.5693952293        0.0001280465
 H          2.3466714195       -2.4671486757        0.0000398404
 H          2.3467509906        2.4670038543       -0.0000324504
 H         -2.3469841949        2.4670901500       -0.0000769972
 H         -2.3470568936       -2.4670574125        0.0001085667
          22
        -54.10626966
 C          2.3613543373       -1.3903660777       -0.0000451597
 C          1.1627890786       -0.6992474405       -0.0000677330
 C          1.1627997393        0.6992600141       -0.0000742150
 C          2.3613563067        1.3903900072       -0.0000411486
 C          3.5628414861        0.6944684511        0.0000031416
 C          3.5628398381       -0.6944437602       -0.0000003229
 Cl         5.0512129054       -1.5693366532        0.0000512013
 Cl         5.0512286902        1.5693116438        0.0000806372
 O         -0.0000135272        1.4269264877       -0.0001410702
 C         -1.1628040643        0.6992657452       -0.0000919251
 C         -2.3613675162        1.3903841755       -0.0000695373
 C         -3.5628516475        0.6944566483       -0.0000085688
 C         -3.5628340152       -0.6944470551        0.0000184449
 C         -2.3613521992       -1.3903797165       -0.0000049819
 C         -1.1627984770       -0.6992334772       -0.0000561087
 O         -0.0000189699       -1.4268971664       -0.0000932257
 Cl        -5.0511948060       -1.5693475691        0.0000527670
 Cl        -5.0512232979        1.5693222018        0.0000759217
 H          2.3468817548       -2.4670644332       -0.0000584326
 H          2.3468564355        2.4670880979       -0.0000562363
 H         -2.3468787507        2.4670746147       -0.0001101643
 H         -2.3468465593       -2.4670729504        0.0000009125
