 xtb: 6.7.1 (edcfbbe)
          04092507313D

 38 37  0     0  0            999 V2000
    4.3105   -3.4099    0.2429 C   0  0  0  0  0  0  0  0  0  0  0  0
    4.2150   -2.8561   -1.1695 C   0  0  0  0  0  0  0  0  0  0  0  0
    2.8478   -2.5416   -1.5043 O   0  0  0  0  0  0  0  0  0  0  0  0
    2.3803   -1.3529   -1.1918 C   0  0  0  0  0  0  0  0  0  0  0  0
    3.0278   -0.4671   -0.6717 O   0  0  0  0  0  0  0  0  0  0  0  0
    0.9152   -1.2163   -1.5490 C   0  0  0  0  0  0  0  0  0  0  0  0
    0.4809    0.2268   -1.3323 C   0  0  0  0  0  0  0  0  0  0  0  0
    0.9154    0.9063   -2.0663 H   0  0  0  0  0  0  0  0  0  0  0  0
    0.8688    0.6774    0.0621 C   0  0  0  0  0  0  0  0  0  0  0  0
    0.6640   -0.0199    1.0375 O   0  0  0  0  0  0  0  0  0  0  0  0
    1.3673    1.8825    0.0637 O   0  0  0  0  0  0  0  0  0  0  0  0
    1.7831    2.4808    1.3083 C   0  0  0  0  0  0  0  0  0  0  0  0
    1.2706    3.9080    1.3605 C   0  0  0  0  0  0  0  0  0  0  0  0
   -1.3277    0.4063   -1.4863 S   0  0  0  0  0  0  0  0  0  0  0  0
   -2.0939    0.2312    0.5068 P   0  0  0  0  0  0  0  0  0  0  0  0
   -1.7508    1.6484    1.8110 S   0  0  0  0  0  0  0  0  0  0  0  0
   -3.6461    0.1320    0.1309 O   0  0  0  0  0  0  0  0  0  0  0  0
   -4.3950    1.2770   -0.2891 C   0  0  0  0  0  0  0  0  0  0  0  0
   -1.8330   -1.2438    1.0090 O   0  0  0  0  0  0  0  0  0  0  0  0
   -2.3581   -2.3896    0.3043 C   0  0  0  0  0  0  0  0  0  0  0  0
    3.6822   -4.2904    0.3443 H   0  0  0  0  0  0  0  0  0  0  0  0
    5.3401   -3.6775    0.4557 H   0  0  0  0  0  0  0  0  0  0  0  0
    3.9852   -2.6598    0.9614 H   0  0  0  0  0  0  0  0  0  0  0  0
    4.5120   -3.5985   -1.9101 H   0  0  0  0  0  0  0  0  0  0  0  0
    4.8164   -1.9487   -1.2720 H   0  0  0  0  0  0  0  0  0  0  0  0
    0.3647   -1.8794   -0.8763 H   0  0  0  0  0  0  0  0  0  0  0  0
    0.7405   -1.5382   -2.5747 H   0  0  0  0  0  0  0  0  0  0  0  0
    1.3887    1.8802    2.1328 H   0  0  0  0  0  0  0  0  0  0  0  0
    2.8754    2.4419    1.3136 H   0  0  0  0  0  0  0  0  0  0  0  0
    1.6552    4.3902    2.2527 H   0  0  0  0  0  0  0  0  0  0  0  0
    1.6005    4.4530    0.4814 H   0  0  0  0  0  0  0  0  0  0  0  0
    0.1838    3.9101    1.3981 H   0  0  0  0  0  0  0  0  0  0  0  0
   -4.1551    2.1342    0.3422 H   0  0  0  0  0  0  0  0  0  0  0  0
   -5.4404    1.0017   -0.1747 H   0  0  0  0  0  0  0  0  0  0  0  0
   -4.1670    1.5039   -1.3298 H   0  0  0  0  0  0  0  0  0  0  0  0
   -2.2846   -2.2419   -0.7737 H   0  0  0  0  0  0  0  0  0  0  0  0
   -3.3991   -2.5351    0.5854 H   0  0  0  0  0  0  0  0  0  0  0  0
   -1.7497   -3.2306    0.6282 H   0  0  0  0  0  0  0  0  0  0  0  0
  1  2  1  0  0  0  0
  2  3  1  0  0  0  0
  3  4  4  0  0  0  0
  4  5  2  0  0  0  0
  4  6  1  0  0  0  0
  6  7  1  0  0  0  0
  7  8  1  0  0  0  0
  7  9  1  0  0  0  0
  9 10  2  0  0  0  0
  9 11  4  0  0  0  0
 11 12  1  0  0  0  0
 12 13  1  0  0  0  0
  7 14  1  0  0  0  0
 14 15  1  0  0  0  0
 15 16  2  0  0  0  0
 15 17  1  0  0  0  0
 17 18  1  0  0  0  0
 15 19  2  0  0  0  0
 19 20  1  0  0  0  0
  1 21  1  0  0  0  0
  1 22  1  0  0  0  0
  1 23  1  0  0  0  0
  2 24  1  0  0  0  0
  2 25  1  0  0  0  0
  6 26  1  0  0  0  0
  6 27  1  0  0  0  0
 12 28  1  0  0  0  0
 12 29  1  0  0  0  0
 13 30  1  0  0  0  0
 13 31  1  0  0  0  0
 13 32  1  0  0  0  0
 18 33  1  0  0  0  0
 18 34  1  0  0  0  0
 18 35  1  0  0  0  0
 20 36  1  0  0  0  0
 20 37  1  0  0  0  0
 20 38  1  0  0  0  0
M  END
