 xtb: 6.7.1 (edcfbbe)
          04092505203D

 41 40  0     0  0            999 V2000
    4.7010   -1.6738   -0.2066 C   0  0  0  0  0  0  0  0  0  0  0  0
    4.6283   -0.6979   -1.3619 C   0  0  0  0  0  0  0  0  0  0  0  0
    3.2676   -0.3998   -1.7617 O   0  0  0  0  0  0  0  0  0  0  0  0
    2.1673    0.2977   -0.8709 P   0  0  0  0  0  0  0  0  0  0  0  0
    0.8178    1.1021   -2.0461 S   0  0  0  0  0  0  0  0  0  0  0  0
    3.0505    1.2716    0.0108 O   0  0  0  0  0  0  0  0  0  0  0  0
    2.5609    2.2161    0.9812 C   0  0  0  0  0  0  0  0  0  0  0  0
    2.6370    1.6365    2.3792 C   0  0  0  0  0  0  0  0  0  0  0  0
    1.4147   -1.1966    0.4484 S   0  0  0  0  0  0  0  0  0  0  0  0
    0.0357   -1.7919   -0.5788 C   0  0  0  0  0  0  0  0  0  0  0  0
   -1.5174   -1.9479    0.3303 S   0  0  0  0  0  0  0  0  0  0  0  0
   -2.0879    0.1083    0.4174 P   0  0  0  0  0  0  0  0  0  0  0  0
   -0.8778    1.3872    1.2638 S   0  0  0  0  0  0  0  0  0  0  0  0
   -3.5536    0.0056    1.0213 O   0  0  0  0  0  0  0  0  0  0  0  0
   -3.9125   -0.7348    2.2043 C   0  0  0  0  0  0  0  0  0  0  0  0
   -3.0283   -0.4171    3.3910 C   0  0  0  0  0  0  0  0  0  0  0  0
   -2.3541    0.5532   -1.0698 O   0  0  0  0  0  0  0  0  0  0  0  0
   -3.2630   -0.1173   -1.9750 C   0  0  0  0  0  0  0  0  0  0  0  0
   -4.5997    0.5945   -2.0123 C   0  0  0  0  0  0  0  0  0  0  0  0
    4.1618   -2.5871   -0.4436 H   0  0  0  0  0  0  0  0  0  0  0  0
    5.7422   -1.9133   -0.0145 H   0  0  0  0  0  0  0  0  0  0  0  0
    4.2672   -1.2347    0.6896 H   0  0  0  0  0  0  0  0  0  0  0  0
    5.0643   -1.1164   -2.2704 H   0  0  0  0  0  0  0  0  0  0  0  0
    5.1219    0.2426   -1.1115 H   0  0  0  0  0  0  0  0  0  0  0  0
    3.2174    3.0816    0.8728 H   0  0  0  0  0  0  0  0  0  0  0  0
    1.5360    2.5032    0.7312 H   0  0  0  0  0  0  0  0  0  0  0  0
    3.6478    1.3004    2.5922 H   0  0  0  0  0  0  0  0  0  0  0  0
    2.3514    2.4036    3.0912 H   0  0  0  0  0  0  0  0  0  0  0  0
    1.9490    0.8003    2.4793 H   0  0  0  0  0  0  0  0  0  0  0  0
    0.2704   -2.7930   -0.9305 H   0  0  0  0  0  0  0  0  0  0  0  0
   -0.0918   -1.0923   -1.4100 H   0  0  0  0  0  0  0  0  0  0  0  0
   -4.9471   -0.4392    2.3876 H   0  0  0  0  0  0  0  0  0  0  0  0
   -3.8662   -1.8000    1.9618 H   0  0  0  0  0  0  0  0  0  0  0  0
   -2.0046   -0.7316    3.1914 H   0  0  0  0  0  0  0  0  0  0  0  0
   -3.0257    0.6525    3.5877 H   0  0  0  0  0  0  0  0  0  0  0  0
   -3.3961   -0.9441    4.2654 H   0  0  0  0  0  0  0  0  0  0  0  0
   -2.7608   -0.0737   -2.9441 H   0  0  0  0  0  0  0  0  0  0  0  0
   -3.3774   -1.1589   -1.6610 H   0  0  0  0  0  0  0  0  0  0  0  0
   -5.0728    0.5585   -1.0345 H   0  0  0  0  0  0  0  0  0  0  0  0
   -4.4573    1.6344   -2.2937 H   0  0  0  0  0  0  0  0  0  0  0  0
   -5.2401    0.1088   -2.7419 H   0  0  0  0  0  0  0  0  0  0  0  0
  1  2  1  0  0  0  0
  2  3  1  0  0  0  0
  3  4  2  0  0  0  0
  4  5  2  0  0  0  0
  4  6  2  0  0  0  0
  6  7  1  0  0  0  0
  7  8  1  0  0  0  0
  4  9  1  0  0  0  0
  9 10  1  0  0  0  0
 10 11  1  0  0  0  0
 11 12  1  0  0  0  0
 12 13  2  0  0  0  0
 12 14  2  0  0  0  0
 14 15  1  0  0  0  0
 15 16  1  0  0  0  0
 12 17  2  0  0  0  0
 17 18  1  0  0  0  0
 18 19  1  0  0  0  0
  1 20  1  0  0  0  0
  1 21  1  0  0  0  0
  1 22  1  0  0  0  0
  2 23  1  0  0  0  0
  2 24  1  0  0  0  0
  7 25  1  0  0  0  0
  7 26  1  0  0  0  0
  8 27  1  0  0  0  0
  8 28  1  0  0  0  0
  8 29  1  0  0  0  0
 10 30  1  0  0  0  0
 10 31  1  0  0  0  0
 15 32  1  0  0  0  0
 15 33  1  0  0  0  0
 16 34  1  0  0  0  0
 16 35  1  0  0  0  0
 16 36  1  0  0  0  0
 18 37  1  0  0  0  0
 18 38  1  0  0  0  0
 19 39  1  0  0  0  0
 19 40  1  0  0  0  0
 19 41  1  0  0  0  0
M  END
