 xtb: 6.7.1 (edcfbbe)
          04092505213D

 41 40  0     0  0            999 V2000
    5.5866    0.9071   -0.2684 C   0  0  0  0  0  0  0  0  0  0  0  0
    4.2838    1.5261   -0.7358 C   0  0  0  0  0  0  0  0  0  0  0  0
    3.3130    0.5005   -1.0386 O   0  0  0  0  0  0  0  0  0  0  0  0
    2.1796    0.0768   -0.0054 P   0  0  0  0  0  0  0  0  0  0  0  0
    2.8006   -0.3080    1.8168 S   0  0  0  0  0  0  0  0  0  0  0  0
    1.4912   -1.1127   -0.7847 O   0  0  0  0  0  0  0  0  0  0  0  0
    1.9169   -2.4881   -0.6600 C   0  0  0  0  0  0  0  0  0  0  0  0
    0.9056   -3.2748    0.1500 C   0  0  0  0  0  0  0  0  0  0  0  0
    0.7520    1.6010   -0.2172 S   0  0  0  0  0  0  0  0  0  0  0  0
   -0.1623    1.2722    1.3210 C   0  0  0  0  0  0  0  0  0  0  0  0
   -0.9052   -0.3768    1.3847 S   0  0  0  0  0  0  0  0  0  0  0  0
   -2.1439   -0.3066   -0.3422 P   0  0  0  0  0  0  0  0  0  0  0  0
   -1.4338   -0.5363   -2.1499 S   0  0  0  0  0  0  0  0  0  0  0  0
   -2.9377    1.0599   -0.1118 O   0  0  0  0  0  0  0  0  0  0  0  0
   -3.1458    2.0735   -1.1132 C   0  0  0  0  0  0  0  0  0  0  0  0
   -2.4249    3.3534   -0.7387 C   0  0  0  0  0  0  0  0  0  0  0  0
   -3.1499   -1.4937   -0.0555 O   0  0  0  0  0  0  0  0  0  0  0  0
   -3.7390   -1.8627    1.2141 C   0  0  0  0  0  0  0  0  0  0  0  0
   -4.5910   -0.7596    1.8044 C   0  0  0  0  0  0  0  0  0  0  0  0
    5.9573    0.2100   -1.0148 H   0  0  0  0  0  0  0  0  0  0  0  0
    6.3192    1.6925   -0.1136 H   0  0  0  0  0  0  0  0  0  0  0  0
    5.4347    0.3738    0.6676 H   0  0  0  0  0  0  0  0  0  0  0  0
    4.4129    2.0709   -1.6727 H   0  0  0  0  0  0  0  0  0  0  0  0
    3.8753    2.1978    0.0244 H   0  0  0  0  0  0  0  0  0  0  0  0
    1.9817   -2.8561   -1.6853 H   0  0  0  0  0  0  0  0  0  0  0  0
    2.9044   -2.5187   -0.1908 H   0  0  0  0  0  0  0  0  0  0  0  0
   -0.0841   -3.1656   -0.2897 H   0  0  0  0  0  0  0  0  0  0  0  0
    1.1843   -4.3234    0.1497 H   0  0  0  0  0  0  0  0  0  0  0  0
    0.8774   -2.9099    1.1750 H   0  0  0  0  0  0  0  0  0  0  0  0
   -0.9349    2.0330    1.3971 H   0  0  0  0  0  0  0  0  0  0  0  0
    0.5244    1.3150    2.1668 H   0  0  0  0  0  0  0  0  0  0  0  0
   -2.7990    1.6939   -2.0802 H   0  0  0  0  0  0  0  0  0  0  0  0
   -4.2262    2.2264   -1.1491 H   0  0  0  0  0  0  0  0  0  0  0  0
   -2.6841    4.1232   -1.4584 H   0  0  0  0  0  0  0  0  0  0  0  0
   -2.7267    3.6793    0.2529 H   0  0  0  0  0  0  0  0  0  0  0  0
   -1.3464    3.2050   -0.7595 H   0  0  0  0  0  0  0  0  0  0  0  0
   -4.3353   -2.7419    0.9638 H   0  0  0  0  0  0  0  0  0  0  0  0
   -2.9349   -2.1452    1.8980 H   0  0  0  0  0  0  0  0  0  0  0  0
   -3.9730    0.0971    2.0623 H   0  0  0  0  0  0  0  0  0  0  0  0
   -5.3488   -0.4469    1.0908 H   0  0  0  0  0  0  0  0  0  0  0  0
   -5.0758   -1.1303    2.7022 H   0  0  0  0  0  0  0  0  0  0  0  0
  1  2  1  0  0  0  0
  2  3  1  0  0  0  0
  3  4  2  0  0  0  0
  4  5  2  0  0  0  0
  4  6  2  0  0  0  0
  6  7  1  0  0  0  0
  7  8  1  0  0  0  0
  4  9  1  0  0  0  0
  9 10  1  0  0  0  0
 10 11  1  0  0  0  0
 11 12  1  0  0  0  0
 12 13  2  0  0  0  0
 12 14  2  0  0  0  0
 14 15  1  0  0  0  0
 15 16  1  0  0  0  0
 12 17  2  0  0  0  0
 17 18  1  0  0  0  0
 18 19  1  0  0  0  0
  1 20  1  0  0  0  0
  1 21  1  0  0  0  0
  1 22  1  0  0  0  0
  2 23  1  0  0  0  0
  2 24  1  0  0  0  0
  7 25  1  0  0  0  0
  7 26  1  0  0  0  0
  8 27  1  0  0  0  0
  8 28  1  0  0  0  0
  8 29  1  0  0  0  0
 10 30  1  0  0  0  0
 10 31  1  0  0  0  0
 15 32  1  0  0  0  0
 15 33  1  0  0  0  0
 16 34  1  0  0  0  0
 16 35  1  0  0  0  0
 16 36  1  0  0  0  0
 18 37  1  0  0  0  0
 18 38  1  0  0  0  0
 19 39  1  0  0  0  0
 19 40  1  0  0  0  0
 19 41  1  0  0  0  0
M  END
