 xtb: 6.7.1 (edcfbbe)
          04092505213D

 41 40  0     0  0            999 V2000
    3.0746   -1.8472   -2.0312 C   0  0  0  0  0  0  0  0  0  0  0  0
    1.6692   -1.2884   -2.0016 C   0  0  0  0  0  0  0  0  0  0  0  0
    1.2544   -0.9828   -0.6556 O   0  0  0  0  0  0  0  0  0  0  0  0
    1.9219    0.1857    0.1755 P   0  0  0  0  0  0  0  0  0  0  0  0
    2.7416    1.6809   -0.7844 S   0  0  0  0  0  0  0  0  0  0  0  0
    2.9038   -0.6833    1.0899 O   0  0  0  0  0  0  0  0  0  0  0  0
    3.7763   -0.0689    2.0561 C   0  0  0  0  0  0  0  0  0  0  0  0
    5.1634    0.1337    1.4780 C   0  0  0  0  0  0  0  0  0  0  0  0
    0.3910    0.7119    1.5389 S   0  0  0  0  0  0  0  0  0  0  0  0
   -0.2743   -0.9454    1.8458 C   0  0  0  0  0  0  0  0  0  0  0  0
   -1.4790   -1.5308    0.5953 S   0  0  0  0  0  0  0  0  0  0  0  0
   -2.0587    0.2506   -0.4189 P   0  0  0  0  0  0  0  0  0  0  0  0
   -0.8644    1.1340   -1.7010 S   0  0  0  0  0  0  0  0  0  0  0  0
   -2.5645    1.2457    0.6901 O   0  0  0  0  0  0  0  0  0  0  0  0
   -3.5344    0.8994    1.7154 C   0  0  0  0  0  0  0  0  0  0  0  0
   -3.1527    1.6281    2.9877 C   0  0  0  0  0  0  0  0  0  0  0  0
   -3.4239   -0.2393   -1.0786 O   0  0  0  0  0  0  0  0  0  0  0  0
   -3.4958   -0.8423   -2.3817 C   0  0  0  0  0  0  0  0  0  0  0  0
   -2.8257   -2.2003   -2.4176 C   0  0  0  0  0  0  0  0  0  0  0  0
    3.3263   -2.1328   -3.0476 H   0  0  0  0  0  0  0  0  0  0  0  0
    3.7764   -1.0863   -1.6914 H   0  0  0  0  0  0  0  0  0  0  0  0
    3.1471   -2.7133   -1.3788 H   0  0  0  0  0  0  0  0  0  0  0  0
    0.9320   -2.0178   -2.3416 H   0  0  0  0  0  0  0  0  0  0  0  0
    1.5882   -0.3781   -2.6048 H   0  0  0  0  0  0  0  0  0  0  0  0
    3.3443    0.8848    2.3772 H   0  0  0  0  0  0  0  0  0  0  0  0
    3.7952   -0.7635    2.8980 H   0  0  0  0  0  0  0  0  0  0  0  0
    5.5651   -0.8141    1.1314 H   0  0  0  0  0  0  0  0  0  0  0  0
    5.1216    0.8268    0.6404 H   0  0  0  0  0  0  0  0  0  0  0  0
    5.8142    0.5430    2.2437 H   0  0  0  0  0  0  0  0  0  0  0  0
   -0.7776   -0.9015    2.8088 H   0  0  0  0  0  0  0  0  0  0  0  0
    0.5397   -1.6680    1.8589 H   0  0  0  0  0  0  0  0  0  0  0  0
   -4.5120    1.2151    1.3471 H   0  0  0  0  0  0  0  0  0  0  0  0
   -3.5352   -0.1856    1.8519 H   0  0  0  0  0  0  0  0  0  0  0  0
   -3.8501    1.3612    3.7750 H   0  0  0  0  0  0  0  0  0  0  0  0
   -2.1426    1.3600    3.2884 H   0  0  0  0  0  0  0  0  0  0  0  0
   -3.1849    2.7015    2.8253 H   0  0  0  0  0  0  0  0  0  0  0  0
   -4.5667   -0.9131   -2.5765 H   0  0  0  0  0  0  0  0  0  0  0  0
   -3.0293   -0.1625   -3.1019 H   0  0  0  0  0  0  0  0  0  0  0  0
   -1.7544   -2.0836   -2.2572 H   0  0  0  0  0  0  0  0  0  0  0  0
   -3.2287   -2.8435   -1.6395 H   0  0  0  0  0  0  0  0  0  0  0  0
   -2.9889   -2.6570   -3.3883 H   0  0  0  0  0  0  0  0  0  0  0  0
  1  2  1  0  0  0  0
  2  3  1  0  0  0  0
  3  4  2  0  0  0  0
  4  5  2  0  0  0  0
  4  6  1  0  0  0  0
  6  7  1  0  0  0  0
  7  8  1  0  0  0  0
  4  9  1  0  0  0  0
  9 10  1  0  0  0  0
 10 11  1  0  0  0  0
 11 12  1  0  0  0  0
 12 13  2  0  0  0  0
 12 14  2  0  0  0  0
 14 15  1  0  0  0  0
 15 16  1  0  0  0  0
 12 17  2  0  0  0  0
 17 18  1  0  0  0  0
 18 19  1  0  0  0  0
  1 20  1  0  0  0  0
  1 21  1  0  0  0  0
  1 22  1  0  0  0  0
  2 23  1  0  0  0  0
  2 24  1  0  0  0  0
  7 25  1  0  0  0  0
  7 26  1  0  0  0  0
  8 27  1  0  0  0  0
  8 28  1  0  0  0  0
  8 29  1  0  0  0  0
 10 30  1  0  0  0  0
 10 31  1  0  0  0  0
 15 32  1  0  0  0  0
 15 33  1  0  0  0  0
 16 34  1  0  0  0  0
 16 35  1  0  0  0  0
 16 36  1  0  0  0  0
 18 37  1  0  0  0  0
 18 38  1  0  0  0  0
 19 39  1  0  0  0  0
 19 40  1  0  0  0  0
 19 41  1  0  0  0  0
M  END
