  22
 
 C         -3.5262750000       -0.0028802963        0.0014846405
 C         -2.8403710520       -1.2031298731        0.0808953897
 C         -1.4563008878       -1.1908064831        0.0796319609
 C         -0.7399185433       -0.0005619248        0.0004229282
 C         -1.4583424936        1.1884921149       -0.0782485056
 C         -2.8424385575        1.1985025752       -0.0784501404
 Cl        -0.5797941792        2.6808104789       -0.1775660474
 C          0.7399252576        0.0006091383       -0.0001187059
 C          1.4576812601        0.0795911428        1.1893137627
 C          2.8417682755        0.0812605384        1.2000148519
 C          3.5262683320        0.0024719351       -0.0010658801
 C          2.8410326057       -0.0771945987       -1.2016892638
 C          1.4569488056       -0.0773599699       -1.1900669100
 Cl         0.5766398570       -0.1763243039       -2.6813563251
 Cl         0.5782830089        0.1773794501        2.6812393437
 Cl        -0.5752029694       -2.6817085792        0.1782048266
 H         -4.6039850315       -0.0037637836        0.0019586396
 H         -3.3665038092       -2.1411244593        0.1433024463
 H         -3.3701899101        2.1356238853       -0.1404245612
 H          3.3689617634        0.1434485594        2.1374303953
 H          4.6039818444        0.0032077090       -0.0014420587
 H          3.3677083272       -0.1386376706       -2.1394374641
          22
        -46.97979622
 C         -3.5270562389        0.0001600275        0.0042624331
 C         -2.8405868863        0.9142653097        0.7853114542
 C         -1.4566303134        0.9048306259        0.7771367992
 C         -0.7398119608       -0.0017283999        0.0018441976
 C         -1.4591342875       -0.9078118664       -0.7715641972
 C         -2.8431712952       -0.9153074369       -0.7773627389
 Cl        -0.5840989732       -2.0414781659       -1.7501762962
 C          0.7398045849       -0.0000016967       -0.0013616140
 C          1.4541406177        0.9080359022       -0.7771839196
 C          2.8380798707        0.9200080472       -0.7870264375
 C          3.5270315794        0.0070158783       -0.0068821512
 C          2.8456747010       -0.9095736242        0.7756438951
 C          1.4615717330       -0.9047512825        0.7713429453
 Cl         0.5899042242       -2.0397090984        1.7513416560
 Cl         0.5726416068        2.0385007755       -1.7536999098
 Cl        -0.5784121735        2.0368569230        1.7547806106
 H         -4.6046750175        0.0017049118        0.0042878700
 H         -3.3667124270        1.6286411743        1.3962645302
 H         -3.3712212856       -1.6287563618       -1.3877136017
 H          3.3621276952        1.6352120605       -1.3987745110
 H          4.6045185694        0.0098906002       -0.0088315310
 H          3.3757898785       -1.6220756266        1.3853483067
