19
 xtb: 6.7.1 (edcfbbe)
C           -2.58437370657030        0.60451407370754       -0.00108885568294
C           -1.23229069957554       -0.05629884916847        0.00020076869654
C           -1.15122385574951       -1.45457173458028       -0.00001295144397
C            0.08065710475573       -2.10000970397069        0.00047770829492
C            1.25610869863391       -1.35807182470574        0.00028781789033
C            1.17536008659133        0.03230558891021        0.00005286446162
C           -0.05294254404254        0.70872263084316        0.00129665029091
C           -0.04954048416362        2.21067798416449        0.00114965395012
O            2.31275123885443        0.81591536792693       -0.00215035135009
H           -2.72606223925441        1.23526677546164        0.88337061593031
H           -2.71865385284864        1.24703550899448       -0.87812022663202
H           -3.37584186596298       -0.14829156065195       -0.00916977210068
H           -2.06744951095814       -2.03731504168923       -0.00078805271712
H            0.12935714982421       -3.18455119295322        0.00050110340607
H            2.22902025499202       -1.84222060110233       -0.00007733385287
H            0.50597969400333        2.60206097928367        0.86052450720782
H            0.44335663983816        2.60275972894951       -0.89585769024477
H           -1.05874424017951        2.61987852083944        0.03693458557151
H            3.08768020364050        0.23684023579055       -0.00138690215449
