41
 xtb: 6.7.1 (edcfbbe)
C            1.21612899323823       -0.51138604952554        3.37059372018871
C            1.34408807370693        0.62404370972711        2.38557177575338
O            2.61599150960243        0.56938181331008        1.65245132530430
P            2.78804961919262       -0.25182342168252        0.28034784331497
S            2.80910452146615       -2.19671163577335        0.36401973049715
O            4.14351264976374        0.48534713264122       -0.16897544405838
C            5.11716367856719       -0.13940349006566       -1.07556363592043
C            4.66916231605448       -0.10121122194772       -2.51534837473186
S            1.32988472481913        0.56717349811309       -1.04981988063859
C            0.20687024967928       -0.84884381331678       -1.35297633161292
S           -1.01466016309137       -1.26478319963660       -0.04634422266833
P           -2.38485516696023        0.33801208293955       -0.25576912774801
S           -2.76927316466088        0.92795058368925       -2.07218338837148
O           -1.74099298742067        1.42795773525763        0.73495596924521
C           -2.12898610105449        2.84670122388706        0.67244238469676
C           -3.53408617677580        3.07498590335042        1.17305625032948
O           -3.61998997264679       -0.19713687638951        0.62792432341430
C           -4.82368056807047       -0.80263367957606        0.04030435364460
C           -4.59980908656377       -2.24188473382745       -0.35116727612083
H            0.30029739854844       -0.36119983761314        3.95214800271624
H            1.14748387620880       -1.47735705499712        2.86454975198521
H            2.06349025982343       -0.52828008658563        4.06200840881472
H            1.37697609817695        1.59173332272997        2.89133273136825
H            0.51974732362497        0.63705144669919        1.66578212220820
H            6.01904189950851        0.45615974127238       -0.92150672297356
H            5.30193190573403       -1.16098438811697       -0.73041509417703
H            5.49125986284800       -0.46564995638271       -3.14014323888829
H            3.80044770737011       -0.74263797694084       -2.68768278975623
H            4.42731131723902        0.91926273469070       -2.82579027067227
H            0.80052932990689       -1.75540295408692       -1.50020781295717
H           -0.32726221610451       -0.60849006640291       -2.27767591605576
H           -1.38923486306586        3.33758106968799        1.30787282027042
H           -1.99829201904475        3.18983284418603       -0.35849234411234
H           -4.27845312570035        2.61884729322735        0.51315418264161
H           -3.66078569949043        2.67625218601178        2.18369574436109
H           -3.72152590687196        4.15355787300142        1.20135459544977
H           -5.56628448183969       -0.71324144141825        0.83576101507303
H           -5.13539204807468       -0.18931252676815       -0.81025481955410
H           -4.22798727960996       -2.82582138858609        0.49578723092086
H           -5.55724484159532       -2.66758568063750       -0.66936043119959
H           -3.89546826164412       -2.32968245389013       -1.18345322912733
