  19
 
 C         -3.6422649973       -0.1448691784        0.2188599548
 C         -2.2722092105        0.5126627496        0.1693838421
 O         -1.3012631707       -0.5234026026        0.1503076243
 C          0.0210228403       -0.1959920084        0.0988343267
 C          0.9093262528       -1.2730810776        0.0823946141
 C          2.2695101953       -1.0538498760        0.0287992750
 C          2.7686605074        0.2395891018       -0.0085443985
 C          1.8912915742        1.3069792006        0.0099256863
 C          0.5217749542        1.1006017657        0.0634422920
 H         -4.4132029039        0.6179162115        0.2514509677
 H         -3.7860777103       -0.7658886603       -0.6600721122
 H         -3.7173851779       -0.7723643685        1.1026384523
 H         -2.1202788618        1.1471543861        1.0519207370
 H         -2.1752084786        1.1294302057       -0.7335326190
 H          0.5010921880       -2.2710549871        0.1121297751
 H          2.9447575125       -1.8956886122        0.0159747092
 H          3.8326270567        0.4107530261       -0.0511792314
 H          2.2689287198        2.3180431009       -0.0166487503
 H         -0.1397344632        1.9520286895        0.0778523056
          19
        -26.28236765
 C         -3.6621635566       -0.1127242255        0.0028301405
 C         -2.2854235755        0.5325781820        0.0004998028
 O         -1.3218621266       -0.5110368762       -0.0031920826
 C          0.0034933009       -0.1918527660       -0.0017015110
 C          0.5137899670        1.1014832721       -0.0014955589
 C          1.8856581576        1.2989294976        0.0002892380
 C          2.7565315893        0.2258493587        0.0018375860
 C          2.2477795864       -1.0643854304        0.0013050701
 C          0.8848558862       -1.2747950581       -0.0005391031
 H         -4.4267895660        0.6574535126        0.0013616973
 H         -3.7780990936       -0.7377973541       -0.8779984897
 H         -3.7775053949       -0.7338259923        0.8865303896
 H         -2.1533406022        1.1558908744        0.8945586977
 H         -2.1576326667        1.1584163336       -0.8924153782
 H         -0.1422200790        1.9573033117       -0.0031563485
 H          2.2702108312        2.3078108647        0.0000172887
 H          3.8227244195        0.3900560928        0.0034412745
 H          2.9171755028       -1.9110403915        0.0028779667
 H          0.4693846857       -2.2702385553       -0.0006024008
