 xtb: 6.7.1 (edcfbbe)
          04092505213D

 41 40  0     0  0            999 V2000
    4.1203   -2.6833    0.0028 C   0  0  0  0  0  0  0  0  0  0  0  0
    4.5036   -1.2776    0.4183 C   0  0  0  0  0  0  0  0  0  0  0  0
    3.3642   -0.5049    0.8370 O   0  0  0  0  0  0  0  0  0  0  0  0
    2.2293   -0.0431   -0.1753 P   0  0  0  0  0  0  0  0  0  0  0  0
    2.8728    0.5281   -1.9415 S   0  0  0  0  0  0  0  0  0  0  0  0
    1.4743    1.0542    0.6892 O   0  0  0  0  0  0  0  0  0  0  0  0
    1.7654    2.4580    0.5672 C   0  0  0  0  0  0  0  0  0  0  0  0
    3.1193    2.8007    1.1523 C   0  0  0  0  0  0  0  0  0  0  0  0
    0.8199   -1.6025   -0.1096 S   0  0  0  0  0  0  0  0  0  0  0  0
   -0.1373   -1.1103   -1.5687 C   0  0  0  0  0  0  0  0  0  0  0  0
   -0.7841    0.5930   -1.5187 S   0  0  0  0  0  0  0  0  0  0  0  0
   -2.1762    0.4305    0.0613 P   0  0  0  0  0  0  0  0  0  0  0  0
   -3.3554    1.9749    0.3012 S   0  0  0  0  0  0  0  0  0  0  0  0
   -1.2228    0.0844    1.2732 O   0  0  0  0  0  0  0  0  0  0  0  0
   -1.6340    0.2610    2.6440 C   0  0  0  0  0  0  0  0  0  0  0  0
   -2.7010   -0.7367    3.0403 C   0  0  0  0  0  0  0  0  0  0  0  0
   -2.9118   -0.9593   -0.1972 O   0  0  0  0  0  0  0  0  0  0  0  0
   -4.0751   -1.0657   -1.0411 C   0  0  0  0  0  0  0  0  0  0  0  0
   -4.8219   -2.3238   -0.6453 C   0  0  0  0  0  0  0  0  0  0  0  0
    5.0207   -3.2613   -0.1790 H   0  0  0  0  0  0  0  0  0  0  0  0
    3.5341   -3.1616    0.7834 H   0  0  0  0  0  0  0  0  0  0  0  0
    3.5288   -2.6535   -0.9111 H   0  0  0  0  0  0  0  0  0  0  0  0
    4.9910   -0.7522   -0.4093 H   0  0  0  0  0  0  0  0  0  0  0  0
    5.1543   -1.2782    1.2937 H   0  0  0  0  0  0  0  0  0  0  0  0
    1.7168    2.7326   -0.4924 H   0  0  0  0  0  0  0  0  0  0  0  0
    0.9513    2.9467    1.1059 H   0  0  0  0  0  0  0  0  0  0  0  0
    3.1857    2.4449    2.1771 H   0  0  0  0  0  0  0  0  0  0  0  0
    3.9046    2.3288    0.5628 H   0  0  0  0  0  0  0  0  0  0  0  0
    3.2590    3.8769    1.1306 H   0  0  0  0  0  0  0  0  0  0  0  0
   -0.9555   -1.8203   -1.6539 H   0  0  0  0  0  0  0  0  0  0  0  0
    0.5040   -1.1347   -2.4491 H   0  0  0  0  0  0  0  0  0  0  0  0
   -0.7116    0.1206    3.2095 H   0  0  0  0  0  0  0  0  0  0  0  0
   -1.9962    1.2870    2.7669 H   0  0  0  0  0  0  0  0  0  0  0  0
   -3.6171   -0.5330    2.4877 H   0  0  0  0  0  0  0  0  0  0  0  0
   -2.3691   -1.7474    2.8180 H   0  0  0  0  0  0  0  0  0  0  0  0
   -2.9021   -0.6450    4.1032 H   0  0  0  0  0  0  0  0  0  0  0  0
   -4.6904   -0.1704   -0.9019 H   0  0  0  0  0  0  0  0  0  0  0  0
   -3.7450   -1.1078   -2.0828 H   0  0  0  0  0  0  0  0  0  0  0  0
   -4.1730   -3.1892   -0.7446 H   0  0  0  0  0  0  0  0  0  0  0  0
   -5.1575   -2.2531    0.3853 H   0  0  0  0  0  0  0  0  0  0  0  0
   -5.6834   -2.4438   -1.2939 H   0  0  0  0  0  0  0  0  0  0  0  0
  1  2  1  0  0  0  0
  2  3  1  0  0  0  0
  3  4  2  0  0  0  0
  4  5  2  0  0  0  0
  4  6  2  0  0  0  0
  6  7  1  0  0  0  0
  7  8  1  0  0  0  0
  4  9  1  0  0  0  0
  9 10  1  0  0  0  0
 10 11  1  0  0  0  0
 11 12  1  0  0  0  0
 12 13  2  0  0  0  0
 12 14  2  0  0  0  0
 14 15  1  0  0  0  0
 15 16  1  0  0  0  0
 12 17  2  0  0  0  0
 17 18  1  0  0  0  0
 18 19  1  0  0  0  0
  1 20  1  0  0  0  0
  1 21  1  0  0  0  0
  1 22  1  0  0  0  0
  2 23  1  0  0  0  0
  2 24  1  0  0  0  0
  7 25  1  0  0  0  0
  7 26  1  0  0  0  0
  8 27  1  0  0  0  0
  8 28  1  0  0  0  0
  8 29  1  0  0  0  0
 10 30  1  0  0  0  0
 10 31  1  0  0  0  0
 15 32  1  0  0  0  0
 15 33  1  0  0  0  0
 16 34  1  0  0  0  0
 16 35  1  0  0  0  0
 16 36  1  0  0  0  0
 18 37  1  0  0  0  0
 18 38  1  0  0  0  0
 19 39  1  0  0  0  0
 19 40  1  0  0  0  0
 19 41  1  0  0  0  0
M  END
