 xtb: 6.7.1 (edcfbbe)
          04092505213D

 41 40  0     0  0            999 V2000
    5.4546   -0.4332   -0.8549 C   0  0  0  0  0  0  0  0  0  0  0  0
    4.7650   -0.1563    0.4665 C   0  0  0  0  0  0  0  0  0  0  0  0
    3.4504   -0.7446    0.5236 O   0  0  0  0  0  0  0  0  0  0  0  0
    2.1712   -0.1300   -0.1929 P   0  0  0  0  0  0  0  0  0  0  0  0
    2.0514   -0.2682   -2.1466 S   0  0  0  0  0  0  0  0  0  0  0  0
    2.1411    1.3502    0.3931 O   0  0  0  0  0  0  0  0  0  0  0  0
    1.8830    2.5413   -0.3669 C   0  0  0  0  0  0  0  0  0  0  0  0
    3.1726    3.3099   -0.5748 C   0  0  0  0  0  0  0  0  0  0  0  0
    0.8062   -1.2639    0.9385 S   0  0  0  0  0  0  0  0  0  0  0  0
   -0.2574   -1.9475   -0.3870 C   0  0  0  0  0  0  0  0  0  0  0  0
   -1.9995   -1.8988    0.0665 S   0  0  0  0  0  0  0  0  0  0  0  0
   -2.1746    0.2139    0.2689 P   0  0  0  0  0  0  0  0  0  0  0  0
   -1.1480    1.2853   -1.0097 S   0  0  0  0  0  0  0  0  0  0  0  0
   -1.7730    0.5719    1.7493 O   0  0  0  0  0  0  0  0  0  0  0  0
   -2.0163   -0.2288    2.9324 C   0  0  0  0  0  0  0  0  0  0  0  0
   -3.4749   -0.5910    3.1056 C   0  0  0  0  0  0  0  0  0  0  0  0
   -3.7378    0.4892    0.2540 O   0  0  0  0  0  0  0  0  0  0  0  0
   -4.4850    0.7015   -0.9563 C   0  0  0  0  0  0  0  0  0  0  0  0
   -4.5417   -0.5381   -1.8257 C   0  0  0  0  0  0  0  0  0  0  0  0
    5.5007   -1.5037   -1.0360 H   0  0  0  0  0  0  0  0  0  0  0  0
    4.9083    0.0292   -1.6751 H   0  0  0  0  0  0  0  0  0  0  0  0
    6.4616   -0.0291   -0.8258 H   0  0  0  0  0  0  0  0  0  0  0  0
    4.6787    0.9179    0.6507 H   0  0  0  0  0  0  0  0  0  0  0  0
    5.2939   -0.6291    1.2962 H   0  0  0  0  0  0  0  0  0  0  0  0
    1.4316    2.2679   -1.3260 H   0  0  0  0  0  0  0  0  0  0  0  0
    1.1572    3.1113    0.2158 H   0  0  0  0  0  0  0  0  0  0  0  0
    3.8594    2.7274   -1.1858 H   0  0  0  0  0  0  0  0  0  0  0  0
    2.9490    4.2405   -1.0861 H   0  0  0  0  0  0  0  0  0  0  0  0
    3.6387    3.5286    0.3822 H   0  0  0  0  0  0  0  0  0  0  0  0
   -0.0073   -2.9949   -0.5348 H   0  0  0  0  0  0  0  0  0  0  0  0
   -0.0864   -1.3683   -1.2991 H   0  0  0  0  0  0  0  0  0  0  0  0
   -1.3890   -1.1230    2.8686 H   0  0  0  0  0  0  0  0  0  0  0  0
   -1.6585    0.4115    3.7400 H   0  0  0  0  0  0  0  0  0  0  0  0
   -3.6004   -1.1021    4.0551 H   0  0  0  0  0  0  0  0  0  0  0  0
   -4.0892    0.3054    3.0940 H   0  0  0  0  0  0  0  0  0  0  0  0
   -3.7977   -1.2505    2.3025 H   0  0  0  0  0  0  0  0  0  0  0  0
   -5.4752    0.9892   -0.6005 H   0  0  0  0  0  0  0  0  0  0  0  0
   -4.0297    1.5337   -1.5026 H   0  0  0  0  0  0  0  0  0  0  0  0
   -4.8786   -1.3934   -1.2459 H   0  0  0  0  0  0  0  0  0  0  0  0
   -5.2281   -0.3661   -2.6486 H   0  0  0  0  0  0  0  0  0  0  0  0
   -3.5551   -0.7553   -2.2320 H   0  0  0  0  0  0  0  0  0  0  0  0
  1  2  1  0  0  0  0
  2  3  1  0  0  0  0
  3  4  2  0  0  0  0
  4  5  2  0  0  0  0
  4  6  2  0  0  0  0
  6  7  1  0  0  0  0
  7  8  1  0  0  0  0
  4  9  1  0  0  0  0
  9 10  1  0  0  0  0
 10 11  1  0  0  0  0
 11 12  1  0  0  0  0
 12 13  2  0  0  0  0
 12 14  2  0  0  0  0
 14 15  1  0  0  0  0
 15 16  1  0  0  0  0
 12 17  2  0  0  0  0
 17 18  1  0  0  0  0
 18 19  1  0  0  0  0
  1 20  1  0  0  0  0
  1 21  1  0  0  0  0
  1 22  1  0  0  0  0
  2 23  1  0  0  0  0
  2 24  1  0  0  0  0
  7 25  1  0  0  0  0
  7 26  1  0  0  0  0
  8 27  1  0  0  0  0
  8 28  1  0  0  0  0
  8 29  1  0  0  0  0
 10 30  1  0  0  0  0
 10 31  1  0  0  0  0
 15 32  1  0  0  0  0
 15 33  1  0  0  0  0
 16 34  1  0  0  0  0
 16 35  1  0  0  0  0
 16 36  1  0  0  0  0
 18 37  1  0  0  0  0
 18 38  1  0  0  0  0
 19 39  1  0  0  0  0
 19 40  1  0  0  0  0
 19 41  1  0  0  0  0
M  END
