 xtb: 6.7.1 (edcfbbe)
          04092505213D

 41 40  0     0  0            999 V2000
    4.9679    1.1195    0.0134 C   0  0  0  0  0  0  0  0  0  0  0  0
    3.7246    1.2780   -0.8357 C   0  0  0  0  0  0  0  0  0  0  0  0
    2.9494    0.0612   -0.8729 O   0  0  0  0  0  0  0  0  0  0  0  0
    2.1621   -0.4624    0.3942 P   0  0  0  0  0  0  0  0  0  0  0  0
    1.5447    0.8863    1.6831 S   0  0  0  0  0  0  0  0  0  0  0  0
    3.1845   -1.5066    1.0195 O   0  0  0  0  0  0  0  0  0  0  0  0
    3.0107   -2.0548    2.3360 C   0  0  0  0  0  0  0  0  0  0  0  0
    1.8332   -3.0066    2.3928 C   0  0  0  0  0  0  0  0  0  0  0  0
    0.7322   -1.6969   -0.5803 S   0  0  0  0  0  0  0  0  0  0  0  0
    0.3281   -0.6473   -2.0069 C   0  0  0  0  0  0  0  0  0  0  0  0
   -0.1339    1.0480   -1.5575 S   0  0  0  0  0  0  0  0  0  0  0  0
   -2.0489    0.6233   -0.7492 P   0  0  0  0  0  0  0  0  0  0  0  0
   -2.9702   -0.9535   -1.4616 S   0  0  0  0  0  0  0  0  0  0  0  0
   -2.6724    2.0370   -1.0774 O   0  0  0  0  0  0  0  0  0  0  0  0
   -4.0956    2.2499   -1.1895 C   0  0  0  0  0  0  0  0  0  0  0  0
   -4.7850    2.1955    0.1576 C   0  0  0  0  0  0  0  0  0  0  0  0
   -1.9038    0.6701    0.8330 O   0  0  0  0  0  0  0  0  0  0  0  0
   -1.8333   -0.4852    1.6878 C   0  0  0  0  0  0  0  0  0  0  0  0
   -3.1735   -0.7364    2.3496 C   0  0  0  0  0  0  0  0  0  0  0  0
    5.5718    2.0184   -0.0606 H   0  0  0  0  0  0  0  0  0  0  0  0
    4.6865    0.9662    1.0546 H   0  0  0  0  0  0  0  0  0  0  0  0
    5.5461    0.2635   -0.3241 H   0  0  0  0  0  0  0  0  0  0  0  0
    3.9664    1.4667   -1.8823 H   0  0  0  0  0  0  0  0  0  0  0  0
    3.0890    2.0829   -0.4525 H   0  0  0  0  0  0  0  0  0  0  0  0
    3.9537   -2.5639    2.5385 H   0  0  0  0  0  0  0  0  0  0  0  0
    2.8728   -1.2274    3.0403 H   0  0  0  0  0  0  0  0  0  0  0  0
    0.9101   -2.4629    2.1899 H   0  0  0  0  0  0  0  0  0  0  0  0
    1.9431   -3.7899    1.6475 H   0  0  0  0  0  0  0  0  0  0  0  0
    1.7723   -3.4514    3.3807 H   0  0  0  0  0  0  0  0  0  0  0  0
   -0.5106   -1.1371   -2.5038 H   0  0  0  0  0  0  0  0  0  0  0  0
    1.1919   -0.5763   -2.6618 H   0  0  0  0  0  0  0  0  0  0  0  0
   -4.1745    3.2380   -1.6451 H   0  0  0  0  0  0  0  0  0  0  0  0
   -4.5053    1.4938   -1.8671 H   0  0  0  0  0  0  0  0  0  0  0  0
   -5.8257    2.4813    0.0403 H   0  0  0  0  0  0  0  0  0  0  0  0
   -4.7374    1.1849    0.5588 H   0  0  0  0  0  0  0  0  0  0  0  0
   -4.2986    2.8737    0.8540 H   0  0  0  0  0  0  0  0  0  0  0  0
   -1.5270   -1.3573    1.1014 H   0  0  0  0  0  0  0  0  0  0  0  0
   -1.0606   -0.2441    2.4216 H   0  0  0  0  0  0  0  0  0  0  0  0
   -3.9113   -1.0174    1.6008 H   0  0  0  0  0  0  0  0  0  0  0  0
   -3.0689   -1.5485    3.0616 H   0  0  0  0  0  0  0  0  0  0  0  0
   -3.5082    0.1571    2.8690 H   0  0  0  0  0  0  0  0  0  0  0  0
  1  2  1  0  0  0  0
  2  3  1  0  0  0  0
  3  4  2  0  0  0  0
  4  5  2  0  0  0  0
  4  6  2  0  0  0  0
  6  7  1  0  0  0  0
  7  8  1  0  0  0  0
  4  9  1  0  0  0  0
  9 10  1  0  0  0  0
 10 11  1  0  0  0  0
 11 12  1  0  0  0  0
 12 13  2  0  0  0  0
 12 14  2  0  0  0  0
 14 15  1  0  0  0  0
 15 16  1  0  0  0  0
 12 17  2  0  0  0  0
 17 18  1  0  0  0  0
 18 19  1  0  0  0  0
  1 20  1  0  0  0  0
  1 21  1  0  0  0  0
  1 22  1  0  0  0  0
  2 23  1  0  0  0  0
  2 24  1  0  0  0  0
  7 25  1  0  0  0  0
  7 26  1  0  0  0  0
  8 27  1  0  0  0  0
  8 28  1  0  0  0  0
  8 29  1  0  0  0  0
 10 30  1  0  0  0  0
 10 31  1  0  0  0  0
 15 32  1  0  0  0  0
 15 33  1  0  0  0  0
 16 34  1  0  0  0  0
 16 35  1  0  0  0  0
 16 36  1  0  0  0  0
 18 37  1  0  0  0  0
 18 38  1  0  0  0  0
 19 39  1  0  0  0  0
 19 40  1  0  0  0  0
 19 41  1  0  0  0  0
M  END
