 xtb: 6.7.1 (edcfbbe)
          04092505203D

 41 40  0     0  0            999 V2000
    3.0244    0.6728   -2.8192 C   0  0  0  0  0  0  0  0  0  0  0  0
    2.5020   -0.7246   -2.5549 C   0  0  0  0  0  0  0  0  0  0  0  0
    1.6364   -0.7730   -1.4018 O   0  0  0  0  0  0  0  0  0  0  0  0
    2.1191   -0.5910    0.0977 P   0  0  0  0  0  0  0  0  0  0  0  0
    2.7800    1.1440    0.7495 S   0  0  0  0  0  0  0  0  0  0  0  0
    3.2171   -1.7438    0.1755 O   0  0  0  0  0  0  0  0  0  0  0  0
    4.1724   -1.8284    1.2452 C   0  0  0  0  0  0  0  0  0  0  0  0
    3.5189   -2.1941    2.5622 C   0  0  0  0  0  0  0  0  0  0  0  0
    0.4283   -1.3734    1.0727 S   0  0  0  0  0  0  0  0  0  0  0  0
   -0.2245    0.1260    1.8953 C   0  0  0  0  0  0  0  0  0  0  0  0
   -1.9945    0.3447    1.6430 S   0  0  0  0  0  0  0  0  0  0  0  0
   -2.0365    1.0559   -0.3691 P   0  0  0  0  0  0  0  0  0  0  0  0
   -0.3250    1.7543   -1.0209 S   0  0  0  0  0  0  0  0  0  0  0  0
   -3.1534    2.1608   -0.4058 O   0  0  0  0  0  0  0  0  0  0  0  0
   -4.5833    1.9146   -0.4020 C   0  0  0  0  0  0  0  0  0  0  0  0
   -5.0468    1.2041    0.8508 C   0  0  0  0  0  0  0  0  0  0  0  0
   -2.6939   -0.0839   -1.2675 O   0  0  0  0  0  0  0  0  0  0  0  0
   -2.0197   -1.2925   -1.6604 C   0  0  0  0  0  0  0  0  0  0  0  0
   -2.4573   -2.4570   -0.7927 C   0  0  0  0  0  0  0  0  0  0  0  0
    2.1965    1.3793   -2.8429 H   0  0  0  0  0  0  0  0  0  0  0  0
    3.7102    0.9799   -2.0316 H   0  0  0  0  0  0  0  0  0  0  0  0
    3.5444    0.6927   -3.7716 H   0  0  0  0  0  0  0  0  0  0  0  0
    3.3204   -1.4329   -2.4054 H   0  0  0  0  0  0  0  0  0  0  0  0
    1.8581   -1.0648   -3.3679 H   0  0  0  0  0  0  0  0  0  0  0  0
    4.8707   -2.5977    0.9128 H   0  0  0  0  0  0  0  0  0  0  0  0
    4.6861   -0.8650    1.3265 H   0  0  0  0  0  0  0  0  0  0  0  0
    4.2877   -2.3729    3.3069 H   0  0  0  0  0  0  0  0  0  0  0  0
    2.8859   -1.3743    2.8995 H   0  0  0  0  0  0  0  0  0  0  0  0
    2.9093   -3.0867    2.4473 H   0  0  0  0  0  0  0  0  0  0  0  0
    0.3238    0.9924    1.5163 H   0  0  0  0  0  0  0  0  0  0  0  0
   -0.0936    0.0144    2.9685 H   0  0  0  0  0  0  0  0  0  0  0  0
   -5.0046    2.9182   -0.4765 H   0  0  0  0  0  0  0  0  0  0  0  0
   -4.8304    1.3390   -1.2956 H   0  0  0  0  0  0  0  0  0  0  0  0
   -6.1298    1.1299    0.8351 H   0  0  0  0  0  0  0  0  0  0  0  0
   -4.6235    0.2026    0.8976 H   0  0  0  0  0  0  0  0  0  0  0  0
   -4.7379    1.7535    1.7363 H   0  0  0  0  0  0  0  0  0  0  0  0
   -2.3098   -1.4457   -2.7020 H   0  0  0  0  0  0  0  0  0  0  0  0
   -0.9369   -1.1371   -1.6117 H   0  0  0  0  0  0  0  0  0  0  0  0
   -1.9906   -3.3649   -1.1604 H   0  0  0  0  0  0  0  0  0  0  0  0
   -2.1541   -2.3041    0.2405 H   0  0  0  0  0  0  0  0  0  0  0  0
   -3.5373   -2.5646   -0.8349 H   0  0  0  0  0  0  0  0  0  0  0  0
  1  2  1  0  0  0  0
  2  3  1  0  0  0  0
  3  4  2  0  0  0  0
  4  5  2  0  0  0  0
  4  6  2  0  0  0  0
  6  7  1  0  0  0  0
  7  8  1  0  0  0  0
  4  9  1  0  0  0  0
  9 10  1  0  0  0  0
 10 11  1  0  0  0  0
 11 12  1  0  0  0  0
 12 13  2  0  0  0  0
 12 14  2  0  0  0  0
 14 15  1  0  0  0  0
 15 16  1  0  0  0  0
 12 17  2  0  0  0  0
 17 18  1  0  0  0  0
 18 19  1  0  0  0  0
  1 20  1  0  0  0  0
  1 21  1  0  0  0  0
  1 22  1  0  0  0  0
  2 23  1  0  0  0  0
  2 24  1  0  0  0  0
  7 25  1  0  0  0  0
  7 26  1  0  0  0  0
  8 27  1  0  0  0  0
  8 28  1  0  0  0  0
  8 29  1  0  0  0  0
 10 30  1  0  0  0  0
 10 31  1  0  0  0  0
 15 32  1  0  0  0  0
 15 33  1  0  0  0  0
 16 34  1  0  0  0  0
 16 35  1  0  0  0  0
 16 36  1  0  0  0  0
 18 37  1  0  0  0  0
 18 38  1  0  0  0  0
 19 39  1  0  0  0  0
 19 40  1  0  0  0  0
 19 41  1  0  0  0  0
M  END
