 xtb: 6.7.1 (edcfbbe)
          04092505203D

 41 40  0     0  0            999 V2000
    5.5148   -0.7929   -0.7691 C   0  0  0  0  0  0  0  0  0  0  0  0
    4.2310   -1.5698   -0.9752 C   0  0  0  0  0  0  0  0  0  0  0  0
    3.2007   -0.7298   -1.5539 O   0  0  0  0  0  0  0  0  0  0  0  0
    2.1211    0.0531   -0.7143 P   0  0  0  0  0  0  0  0  0  0  0  0
    0.9410    1.0431   -1.9197 S   0  0  0  0  0  0  0  0  0  0  0  0
    3.0085    0.8930    0.2947 O   0  0  0  0  0  0  0  0  0  0  0  0
    2.4910    1.9117    1.1708 C   0  0  0  0  0  0  0  0  0  0  0  0
    3.6620    2.7476    1.6437 C   0  0  0  0  0  0  0  0  0  0  0  0
    1.2116   -1.4317    0.5151 S   0  0  0  0  0  0  0  0  0  0  0  0
   -0.1593   -1.8786   -0.6013 C   0  0  0  0  0  0  0  0  0  0  0  0
   -1.7649   -1.9132    0.2281 S   0  0  0  0  0  0  0  0  0  0  0  0
   -2.1262    0.1823    0.3936 P   0  0  0  0  0  0  0  0  0  0  0  0
   -0.8617    1.2793    1.4020 S   0  0  0  0  0  0  0  0  0  0  0  0
   -3.6164    0.2187    0.9452 O   0  0  0  0  0  0  0  0  0  0  0  0
   -3.9187    0.2058    2.3524 C   0  0  0  0  0  0  0  0  0  0  0  0
   -3.5015   -1.0896    3.0170 C   0  0  0  0  0  0  0  0  0  0  0  0
   -2.2677    0.6831   -1.0924 O   0  0  0  0  0  0  0  0  0  0  0  0
   -3.1675    0.1192   -2.0773 C   0  0  0  0  0  0  0  0  0  0  0  0
   -4.4853    0.8655   -2.0975 C   0  0  0  0  0  0  0  0  0  0  0  0
    6.2846   -1.4701   -0.4124 H   0  0  0  0  0  0  0  0  0  0  0  0
    5.8345   -0.3475   -1.7072 H   0  0  0  0  0  0  0  0  0  0  0  0
    5.3657   -0.0022   -0.0391 H   0  0  0  0  0  0  0  0  0  0  0  0
    3.8607   -1.9839   -0.0329 H   0  0  0  0  0  0  0  0  0  0  0  0
    4.3638   -2.3698   -1.7057 H   0  0  0  0  0  0  0  0  0  0  0  0
    1.7593    2.5129    0.6218 H   0  0  0  0  0  0  0  0  0  0  0  0
    1.9773    1.4268    2.0052 H   0  0  0  0  0  0  0  0  0  0  0  0
    3.2944    3.5233    2.3071 H   0  0  0  0  0  0  0  0  0  0  0  0
    4.3721    2.1237    2.1787 H   0  0  0  0  0  0  0  0  0  0  0  0
    4.1600    3.2071    0.7943 H   0  0  0  0  0  0  0  0  0  0  0  0
    0.0073   -2.8884   -0.9666 H   0  0  0  0  0  0  0  0  0  0  0  0
   -0.1796   -1.1518   -1.4183 H   0  0  0  0  0  0  0  0  0  0  0  0
   -3.4150    1.0577    2.8196 H   0  0  0  0  0  0  0  0  0  0  0  0
   -4.9997    0.3481    2.3868 H   0  0  0  0  0  0  0  0  0  0  0  0
   -2.4152   -1.1699    3.0249 H   0  0  0  0  0  0  0  0  0  0  0  0
   -3.8609   -1.0990    4.0409 H   0  0  0  0  0  0  0  0  0  0  0  0
   -3.9123   -1.9413    2.4804 H   0  0  0  0  0  0  0  0  0  0  0  0
   -2.6299    0.2314   -3.0214 H   0  0  0  0  0  0  0  0  0  0  0  0
   -3.3185   -0.9412   -1.8556 H   0  0  0  0  0  0  0  0  0  0  0  0
   -4.3093    1.9248   -2.2647 H   0  0  0  0  0  0  0  0  0  0  0  0
   -5.1006    0.4729   -2.9011 H   0  0  0  0  0  0  0  0  0  0  0  0
   -5.0046    0.7396   -1.1513 H   0  0  0  0  0  0  0  0  0  0  0  0
  1  2  1  0  0  0  0
  2  3  1  0  0  0  0
  3  4  2  0  0  0  0
  4  5  2  0  0  0  0
  4  6  2  0  0  0  0
  6  7  1  0  0  0  0
  7  8  1  0  0  0  0
  4  9  1  0  0  0  0
  9 10  1  0  0  0  0
 10 11  1  0  0  0  0
 11 12  1  0  0  0  0
 12 13  2  0  0  0  0
 12 14  2  0  0  0  0
 14 15  1  0  0  0  0
 15 16  1  0  0  0  0
 12 17  2  0  0  0  0
 17 18  1  0  0  0  0
 18 19  1  0  0  0  0
  1 20  1  0  0  0  0
  1 21  1  0  0  0  0
  1 22  1  0  0  0  0
  2 23  1  0  0  0  0
  2 24  1  0  0  0  0
  7 25  1  0  0  0  0
  7 26  1  0  0  0  0
  8 27  1  0  0  0  0
  8 28  1  0  0  0  0
  8 29  1  0  0  0  0
 10 30  1  0  0  0  0
 10 31  1  0  0  0  0
 15 32  1  0  0  0  0
 15 33  1  0  0  0  0
 16 34  1  0  0  0  0
 16 35  1  0  0  0  0
 16 36  1  0  0  0  0
 18 37  1  0  0  0  0
 18 38  1  0  0  0  0
 19 39  1  0  0  0  0
 19 40  1  0  0  0  0
 19 41  1  0  0  0  0
M  END
