 xtb: 6.7.1 (edcfbbe)
          04032520443D

 10 10  0     0  0            999 V2000
   -1.7178   -0.7134   -0.4879 C   0  0  0  0  0  0  0  0  0  0  0  0
   -0.8509   -0.1236    0.6191 C   0  0  0  0  0  0  0  0  0  0  0  0
    0.4792    0.1901    0.1026 N   0  0  0  0  0  0  0  0  0  0  0  0
    0.8858    1.3284    0.2250 O   0  0  0  0  0  0  0  0  0  0  0  0
    1.1133   -0.6999   -0.4240 O   0  0  0  0  0  0  0  0  0  0  0  0
   -1.2236   -1.5753   -0.9290 H   0  0  0  0  0  0  0  0  0  0  0  0
   -2.6688   -1.0267   -0.0708 H   0  0  0  0  0  0  0  0  0  0  0  0
   -1.9026    0.0226   -1.2659 H   0  0  0  0  0  0  0  0  0  0  0  0
   -0.7179   -0.8630    1.4125 H   0  0  0  0  0  0  0  0  0  0  0  0
   -1.2705    0.7974    1.0238 H   0  0  0  0  0  0  0  0  0  0  0  0
  1  2  1  0  0  0  0
  2  3  1  0  0  0  0
  3  4  4  0  0  0  0
  3  5  4  0  0  0  0
  4  5  1  0  0  0  0
  1  6  1  0  0  0  0
  1  7  1  0  0  0  0
  1  8  1  0  0  0  0
  2  9  1  0  0  0  0
  2 10  1  0  0  0  0
M  END
