 xtb: 6.7.1 (edcfbbe)
          04092505203D

 41 40  0     0  0            999 V2000
    3.2818   -0.1317   -2.9532 C   0  0  0  0  0  0  0  0  0  0  0  0
    1.8368    0.1137   -2.5767 C   0  0  0  0  0  0  0  0  0  0  0  0
    1.4258   -0.6672   -1.4346 O   0  0  0  0  0  0  0  0  0  0  0  0
    2.0877   -0.4771   -0.0058 P   0  0  0  0  0  0  0  0  0  0  0  0
    2.6568    1.3274    0.5178 S   0  0  0  0  0  0  0  0  0  0  0  0
    3.2725   -1.5356   -0.0958 O   0  0  0  0  0  0  0  0  0  0  0  0
    4.3766   -1.5431    0.8241 C   0  0  0  0  0  0  0  0  0  0  0  0
    3.9525   -1.9125    2.2311 C   0  0  0  0  0  0  0  0  0  0  0  0
    0.6562   -1.4513    1.2063 S   0  0  0  0  0  0  0  0  0  0  0  0
    0.0310   -0.0347    2.1754 C   0  0  0  0  0  0  0  0  0  0  0  0
   -1.7746    0.0946    2.1518 S   0  0  0  0  0  0  0  0  0  0  0  0
   -2.0492    0.4243    0.0931 P   0  0  0  0  0  0  0  0  0  0  0  0
   -0.7618    1.6209   -0.7911 S   0  0  0  0  0  0  0  0  0  0  0  0
   -3.5579    0.9071    0.0057 O   0  0  0  0  0  0  0  0  0  0  0  0
   -3.9462    2.2527    0.3487 C   0  0  0  0  0  0  0  0  0  0  0  0
   -5.3312    2.4948   -0.2163 C   0  0  0  0  0  0  0  0  0  0  0  0
   -2.1503   -1.0579   -0.4427 O   0  0  0  0  0  0  0  0  0  0  0  0
   -1.9594   -1.4196   -1.8255 C   0  0  0  0  0  0  0  0  0  0  0  0
   -2.9924   -0.7755   -2.7247 C   0  0  0  0  0  0  0  0  0  0  0  0
    3.5030    0.3927   -3.8776 H   0  0  0  0  0  0  0  0  0  0  0  0
    3.9392    0.2426   -2.1693 H   0  0  0  0  0  0  0  0  0  0  0  0
    3.4591   -1.1960   -3.0855 H   0  0  0  0  0  0  0  0  0  0  0  0
    1.1548   -0.2023   -3.3679 H   0  0  0  0  0  0  0  0  0  0  0  0
    1.6614    1.1703   -2.3480 H   0  0  0  0  0  0  0  0  0  0  0  0
    5.0620   -2.2798    0.4029 H   0  0  0  0  0  0  0  0  0  0  0  0
    4.8402   -0.5514    0.8135 H   0  0  0  0  0  0  0  0  0  0  0  0
    3.3277   -1.1238    2.6483 H   0  0  0  0  0  0  0  0  0  0  0  0
    3.3889   -2.8421    2.2252 H   0  0  0  0  0  0  0  0  0  0  0  0
    4.8347   -2.0277    2.8526 H   0  0  0  0  0  0  0  0  0  0  0  0
    0.4791    0.8822    1.7820 H   0  0  0  0  0  0  0  0  0  0  0  0
    0.2986   -0.1847    3.2182 H   0  0  0  0  0  0  0  0  0  0  0  0
   -3.9375    2.3431    1.4382 H   0  0  0  0  0  0  0  0  0  0  0  0
   -3.2109    2.9464   -0.0734 H   0  0  0  0  0  0  0  0  0  0  0  0
   -5.3161    2.4071   -1.2989 H   0  0  0  0  0  0  0  0  0  0  0  0
   -6.0262    1.7644    0.1872 H   0  0  0  0  0  0  0  0  0  0  0  0
   -5.6573    3.4927    0.0577 H   0  0  0  0  0  0  0  0  0  0  0  0
   -0.9457   -1.1306   -2.1192 H   0  0  0  0  0  0  0  0  0  0  0  0
   -2.0431   -2.5073   -1.8185 H   0  0  0  0  0  0  0  0  0  0  0  0
   -2.8671   -1.1398   -3.7396 H   0  0  0  0  0  0  0  0  0  0  0  0
   -3.9931   -1.0128   -2.3734 H   0  0  0  0  0  0  0  0  0  0  0  0
   -2.8634    0.3067   -2.7167 H   0  0  0  0  0  0  0  0  0  0  0  0
  1  2  1  0  0  0  0
  2  3  1  0  0  0  0
  3  4  2  0  0  0  0
  4  5  2  0  0  0  0
  4  6  2  0  0  0  0
  6  7  1  0  0  0  0
  7  8  1  0  0  0  0
  4  9  1  0  0  0  0
  9 10  1  0  0  0  0
 10 11  1  0  0  0  0
 11 12  1  0  0  0  0
 12 13  2  0  0  0  0
 12 14  2  0  0  0  0
 14 15  1  0  0  0  0
 15 16  1  0  0  0  0
 12 17  2  0  0  0  0
 17 18  1  0  0  0  0
 18 19  1  0  0  0  0
  1 20  1  0  0  0  0
  1 21  1  0  0  0  0
  1 22  1  0  0  0  0
  2 23  1  0  0  0  0
  2 24  1  0  0  0  0
  7 25  1  0  0  0  0
  7 26  1  0  0  0  0
  8 27  1  0  0  0  0
  8 28  1  0  0  0  0
  8 29  1  0  0  0  0
 10 30  1  0  0  0  0
 10 31  1  0  0  0  0
 15 32  1  0  0  0  0
 15 33  1  0  0  0  0
 16 34  1  0  0  0  0
 16 35  1  0  0  0  0
 16 36  1  0  0  0  0
 18 37  1  0  0  0  0
 18 38  1  0  0  0  0
 19 39  1  0  0  0  0
 19 40  1  0  0  0  0
 19 41  1  0  0  0  0
M  END
