  19
 
 C          2.3977367736       -0.6490003280       -0.1714959441
 C          1.0980731755       -0.1165513513        0.4167134293
 H          1.1458562936       -0.1762715726        1.5163854997
 C          0.7630606588        1.3155360617       -0.0157874788
 C         -0.7610287587        1.3166044743        0.0252867651
 C         -1.0995327573       -0.1102461094       -0.4222005059
 H         -1.1553806934       -0.1571717976       -1.5219948623
 O          0.0005817293       -0.9268079830       -0.0121003459
 C         -2.3956655479       -0.6482071140        0.1692597402
 H          2.3518112655       -0.6239153140       -1.2573300465
 H          3.2306031264       -0.0409656104        0.1691042921
 H          2.5503762214       -1.6771292916        0.1441954880
 H          1.2108379824        2.0550390212        0.6428261716
 H          1.1158563206        1.4826108233       -1.0344674226
 H         -1.1133545256        1.4739643141        1.0456810946
 H         -1.2075082665        2.0637898610       -0.6254933928
 H         -2.5555050138       -1.6701937857       -0.1625118203
 H         -3.2294020810       -0.0311877104       -0.1526486056
 H         -2.3390824087       -0.6419852197        1.2549074777
          19
        -23.04781123
 C          2.3982603631       -0.6530497941       -0.1611104310
 C          1.0964389230       -0.1194709708        0.4214789314
 H          1.1411894509       -0.1740999556        1.5215367989
 C          0.7617882607        1.3104202447       -0.0189307305
 C         -0.7624233344        1.3105976306        0.0185480722
 C         -1.0990535621       -0.1188210429       -0.4227267637
 H         -1.1530162615       -0.1712848858       -1.5223627721
 O          0.0008590253       -0.9326058557       -0.0067863885
 C         -2.3959746678       -0.6545356145        0.1692390630
 H          3.2292961943       -0.0418984080        0.1782979966
 H          2.5516749693       -1.6792765109        0.1602350374
 H          2.3547019024       -0.6335370391       -1.2471555660
 H          1.2073700873        2.0532736075        0.6372599649
 H          1.1168240278        1.4725300480       -1.0375920775
 H         -1.1171847068        1.4725816166        1.0373155701
 H         -1.2076534692        2.0541491742       -0.6370712797
 H         -2.5518406037       -1.6799864074       -0.1534597820
 H         -3.2299994277       -0.0427611750       -0.1616515207
 H         -2.3435102694       -0.6378038179        1.2549373103
