 xtb: 6.7.1 (edcfbbe)
          04092507313D

 38 37  0     0  0            999 V2000
    1.0546   -4.1040   -1.0532 C   0  0  0  0  0  0  0  0  0  0  0  0
    2.3469   -3.5898   -0.4391 C   0  0  0  0  0  0  0  0  0  0  0  0
    2.1644   -2.2429    0.0369 O   0  0  0  0  0  0  0  0  0  0  0  0
    2.4791   -1.2412   -0.7578 C   0  0  0  0  0  0  0  0  0  0  0  0
    2.9807   -1.3518   -1.8535 O   0  0  0  0  0  0  0  0  0  0  0  0
    2.1007    0.0885   -0.1306 C   0  0  0  0  0  0  0  0  0  0  0  0
    0.9784    0.7124   -0.9636 C   0  0  0  0  0  0  0  0  0  0  0  0
    1.3523    0.9502   -1.9636 H   0  0  0  0  0  0  0  0  0  0  0  0
    0.4329    1.9633   -0.3031 C   0  0  0  0  0  0  0  0  0  0  0  0
   -0.7286    2.0608    0.0389 O   0  0  0  0  0  0  0  0  0  0  0  0
    1.3512    2.8712   -0.1385 O   0  0  0  0  0  0  0  0  0  0  0  0
    0.9852    4.1074    0.5164 C   0  0  0  0  0  0  0  0  0  0  0  0
    0.3770    5.0880   -0.4720 C   0  0  0  0  0  0  0  0  0  0  0  0
   -0.4102   -0.4283   -1.2461 S   0  0  0  0  0  0  0  0  0  0  0  0
   -1.4175   -0.3634    0.6439 P   0  0  0  0  0  0  0  0  0  0  0  0
   -0.5216    0.1449    2.3102 S   0  0  0  0  0  0  0  0  0  0  0  0
   -2.8829    0.2193    0.3854 O   0  0  0  0  0  0  0  0  0  0  0  0
   -3.3614    1.5316    0.6755 C   0  0  0  0  0  0  0  0  0  0  0  0
   -1.7900   -1.9078    0.7801 O   0  0  0  0  0  0  0  0  0  0  0  0
   -2.5649   -2.6180   -0.1994 C   0  0  0  0  0  0  0  0  0  0  0  0
    0.2486   -4.0278   -0.3278 H   0  0  0  0  0  0  0  0  0  0  0  0
    0.7971   -3.5126   -1.9294 H   0  0  0  0  0  0  0  0  0  0  0  0
    1.1802   -5.1409   -1.3458 H   0  0  0  0  0  0  0  0  0  0  0  0
    3.1602   -3.5939   -1.1701 H   0  0  0  0  0  0  0  0  0  0  0  0
    2.6236   -4.1640    0.4456 H   0  0  0  0  0  0  0  0  0  0  0  0
    2.9595    0.7603   -0.1442 H   0  0  0  0  0  0  0  0  0  0  0  0
    1.7746   -0.0824    0.8968 H   0  0  0  0  0  0  0  0  0  0  0  0
    0.2867    3.8759    1.3249 H   0  0  0  0  0  0  0  0  0  0  0  0
    1.9257    4.4795    0.9217 H   0  0  0  0  0  0  0  0  0  0  0  0
   -0.5562    4.6951   -0.8685 H   0  0  0  0  0  0  0  0  0  0  0  0
    0.1754    6.0251    0.0360 H   0  0  0  0  0  0  0  0  0  0  0  0
    1.0649    5.2669   -1.2937 H   0  0  0  0  0  0  0  0  0  0  0  0
   -4.4231    1.4159    0.8828 H   0  0  0  0  0  0  0  0  0  0  0  0
   -3.2011    2.1786   -0.1845 H   0  0  0  0  0  0  0  0  0  0  0  0
   -2.8443    1.9401    1.5436 H   0  0  0  0  0  0  0  0  0  0  0  0
   -3.5642   -2.1918   -0.2642 H   0  0  0  0  0  0  0  0  0  0  0  0
   -2.6072   -3.6439    0.1581 H   0  0  0  0  0  0  0  0  0  0  0  0
   -2.0745   -2.5682   -1.1721 H   0  0  0  0  0  0  0  0  0  0  0  0
  1  2  1  0  0  0  0
  2  3  1  0  0  0  0
  3  4  1  0  0  0  0
  4  5  2  0  0  0  0
  4  6  1  0  0  0  0
  6  7  1  0  0  0  0
  7  8  1  0  0  0  0
  7  9  1  0  0  0  0
  9 10  2  0  0  0  0
  9 11  4  0  0  0  0
 11 12  1  0  0  0  0
 12 13  1  0  0  0  0
  7 14  1  0  0  0  0
 14 15  1  0  0  0  0
 15 16  2  0  0  0  0
 15 17  2  0  0  0  0
 17 18  1  0  0  0  0
 15 19  1  0  0  0  0
 19 20  1  0  0  0  0
  1 21  1  0  0  0  0
  1 22  1  0  0  0  0
  1 23  1  0  0  0  0
  2 24  1  0  0  0  0
  2 25  1  0  0  0  0
  6 26  1  0  0  0  0
  6 27  1  0  0  0  0
 12 28  1  0  0  0  0
 12 29  1  0  0  0  0
 13 30  1  0  0  0  0
 13 31  1  0  0  0  0
 13 32  1  0  0  0  0
 18 33  1  0  0  0  0
 18 34  1  0  0  0  0
 18 35  1  0  0  0  0
 20 36  1  0  0  0  0
 20 37  1  0  0  0  0
 20 38  1  0  0  0  0
M  END
