 xtb: 6.7.1 (edcfbbe)
          04092505203D

 41 40  0     0  0            999 V2000
    5.1123   -1.0205   -2.3438 C   0  0  0  0  0  0  0  0  0  0  0  0
    3.6930   -1.3161   -1.9025 C   0  0  0  0  0  0  0  0  0  0  0  0
    3.4525   -0.6072   -0.6706 O   0  0  0  0  0  0  0  0  0  0  0  0
    1.9880   -0.2545   -0.1693 P   0  0  0  0  0  0  0  0  0  0  0  0
    0.8412    0.5093   -1.5715 S   0  0  0  0  0  0  0  0  0  0  0  0
    2.2624    0.6455    1.1000 O   0  0  0  0  0  0  0  0  0  0  0  0
    2.3946    2.0782    1.0196 C   0  0  0  0  0  0  0  0  0  0  0  0
    3.6435    2.4846    0.2685 C   0  0  0  0  0  0  0  0  0  0  0  0
    1.4177   -2.0577    0.7517 S   0  0  0  0  0  0  0  0  0  0  0  0
   -0.2141   -1.6242    1.4181 C   0  0  0  0  0  0  0  0  0  0  0  0
   -1.5357   -1.5649    0.1699 S   0  0  0  0  0  0  0  0  0  0  0  0
   -2.1364    0.4772    0.3521 P   0  0  0  0  0  0  0  0  0  0  0  0
   -1.0771    1.6022    1.5495 S   0  0  0  0  0  0  0  0  0  0  0  0
   -3.6855    0.3942    0.7353 O   0  0  0  0  0  0  0  0  0  0  0  0
   -4.1731    0.3025    2.0836 C   0  0  0  0  0  0  0  0  0  0  0  0
   -3.7826   -0.9972    2.7581 C   0  0  0  0  0  0  0  0  0  0  0  0
   -2.2386    1.0368   -1.1105 O   0  0  0  0  0  0  0  0  0  0  0  0
   -2.9567    0.3561   -2.1723 C   0  0  0  0  0  0  0  0  0  0  0  0
   -2.4572    0.9103   -3.4893 C   0  0  0  0  0  0  0  0  0  0  0  0
    5.8094   -1.3148   -1.5648 H   0  0  0  0  0  0  0  0  0  0  0  0
    5.3261   -1.5790   -3.2491 H   0  0  0  0  0  0  0  0  0  0  0  0
    5.2322    0.0411   -2.5412 H   0  0  0  0  0  0  0  0  0  0  0  0
    3.5484   -2.3827   -1.7124 H   0  0  0  0  0  0  0  0  0  0  0  0
    2.9616   -0.9811   -2.6462 H   0  0  0  0  0  0  0  0  0  0  0  0
    1.4976    2.4847    0.5407 H   0  0  0  0  0  0  0  0  0  0  0  0
    2.4177    2.3946    2.0632 H   0  0  0  0  0  0  0  0  0  0  0  0
    4.5144    2.0003    0.7019 H   0  0  0  0  0  0  0  0  0  0  0  0
    3.5572    2.1889   -0.7765 H   0  0  0  0  0  0  0  0  0  0  0  0
    3.7600    3.5625    0.3227 H   0  0  0  0  0  0  0  0  0  0  0  0
   -0.1540   -0.6527    1.9170 H   0  0  0  0  0  0  0  0  0  0  0  0
   -0.4547   -2.4214    2.1165 H   0  0  0  0  0  0  0  0  0  0  0  0
   -3.7903    1.1594    2.6468 H   0  0  0  0  0  0  0  0  0  0  0  0
   -5.2550    0.3872    1.9710 H   0  0  0  0  0  0  0  0  0  0  0  0
   -4.0469   -1.8441    2.1301 H   0  0  0  0  0  0  0  0  0  0  0  0
   -2.7099   -1.0124    2.9442 H   0  0  0  0  0  0  0  0  0  0  0  0
   -4.3030   -1.0755    3.7073 H   0  0  0  0  0  0  0  0  0  0  0  0
   -2.7602   -0.7173   -2.0923 H   0  0  0  0  0  0  0  0  0  0  0  0
   -4.0222    0.5438   -2.0257 H   0  0  0  0  0  0  0  0  0  0  0  0
   -2.9580    0.4006   -4.3057 H   0  0  0  0  0  0  0  0  0  0  0  0
   -2.6575    1.9762   -3.5463 H   0  0  0  0  0  0  0  0  0  0  0  0
   -1.3835    0.7553   -3.5674 H   0  0  0  0  0  0  0  0  0  0  0  0
  1  2  1  0  0  0  0
  2  3  1  0  0  0  0
  3  4  2  0  0  0  0
  4  5  2  0  0  0  0
  4  6  2  0  0  0  0
  6  7  1  0  0  0  0
  7  8  1  0  0  0  0
  4  9  1  0  0  0  0
  9 10  1  0  0  0  0
 10 11  1  0  0  0  0
 11 12  1  0  0  0  0
 12 13  2  0  0  0  0
 12 14  2  0  0  0  0
 14 15  1  0  0  0  0
 15 16  1  0  0  0  0
 12 17  2  0  0  0  0
 17 18  1  0  0  0  0
 18 19  1  0  0  0  0
  1 20  1  0  0  0  0
  1 21  1  0  0  0  0
  1 22  1  0  0  0  0
  2 23  1  0  0  0  0
  2 24  1  0  0  0  0
  7 25  1  0  0  0  0
  7 26  1  0  0  0  0
  8 27  1  0  0  0  0
  8 28  1  0  0  0  0
  8 29  1  0  0  0  0
 10 30  1  0  0  0  0
 10 31  1  0  0  0  0
 15 32  1  0  0  0  0
 15 33  1  0  0  0  0
 16 34  1  0  0  0  0
 16 35  1  0  0  0  0
 16 36  1  0  0  0  0
 18 37  1  0  0  0  0
 18 38  1  0  0  0  0
 19 39  1  0  0  0  0
 19 40  1  0  0  0  0
 19 41  1  0  0  0  0
M  END
