 xtb: 6.7.1 (edcfbbe)
          04092505203D

 41 40  0     0  0            999 V2000
    4.6544    0.3782   -1.8206 C   0  0  0  0  0  0  0  0  0  0  0  0
    4.4035    1.1959   -0.5704 C   0  0  0  0  0  0  0  0  0  0  0  0
    3.5203    0.5323    0.3513 O   0  0  0  0  0  0  0  0  0  0  0  0
    1.9807    0.2816    0.0404 P   0  0  0  0  0  0  0  0  0  0  0  0
    1.0726    1.7644   -0.8528 S   0  0  0  0  0  0  0  0  0  0  0  0
    1.3858   -0.0189    1.4688 O   0  0  0  0  0  0  0  0  0  0  0  0
    1.8568   -1.0707    2.3491 C   0  0  0  0  0  0  0  0  0  0  0  0
    2.8903   -0.5427    3.3219 C   0  0  0  0  0  0  0  0  0  0  0  0
    2.0059   -1.5903   -0.9733 S   0  0  0  0  0  0  0  0  0  0  0  0
    0.2590   -1.6903   -1.4202 C   0  0  0  0  0  0  0  0  0  0  0  0
   -0.8411   -1.8809    0.0206 S   0  0  0  0  0  0  0  0  0  0  0  0
   -1.9651   -0.1033   -0.1083 P   0  0  0  0  0  0  0  0  0  0  0  0
   -2.1573    0.5955   -1.9366 S   0  0  0  0  0  0  0  0  0  0  0  0
   -1.3073    0.7691    1.0324 O   0  0  0  0  0  0  0  0  0  0  0  0
   -1.9556    1.8651    1.7138 C   0  0  0  0  0  0  0  0  0  0  0  0
   -2.4100    2.9489    0.7596 C   0  0  0  0  0  0  0  0  0  0  0  0
   -3.3473   -0.4943    0.5742 O   0  0  0  0  0  0  0  0  0  0  0  0
   -4.3950   -1.1744   -0.1445 C   0  0  0  0  0  0  0  0  0  0  0  0
   -5.7210   -0.8055    0.4901 C   0  0  0  0  0  0  0  0  0  0  0  0
    4.9618   -0.6309   -1.5583 H   0  0  0  0  0  0  0  0  0  0  0  0
    3.7475    0.3246   -2.4207 H   0  0  0  0  0  0  0  0  0  0  0  0
    5.4343    0.8533   -2.4071 H   0  0  0  0  0  0  0  0  0  0  0  0
    3.9676    2.1667   -0.8260 H   0  0  0  0  0  0  0  0  0  0  0  0
    5.3184    1.3402    0.0061 H   0  0  0  0  0  0  0  0  0  0  0  0
    0.9558   -1.4115    2.8635 H   0  0  0  0  0  0  0  0  0  0  0  0
    2.2631   -1.8856    1.7432 H   0  0  0  0  0  0  0  0  0  0  0  0
    3.7778   -0.2146    2.7878 H   0  0  0  0  0  0  0  0  0  0  0  0
    2.4851    0.2974    3.8794 H   0  0  0  0  0  0  0  0  0  0  0  0
    3.1597   -1.3354    4.0129 H   0  0  0  0  0  0  0  0  0  0  0  0
    0.1594   -2.5790   -2.0381 H   0  0  0  0  0  0  0  0  0  0  0  0
   -0.0436   -0.7938   -1.9697 H   0  0  0  0  0  0  0  0  0  0  0  0
   -2.7958    1.4610    2.2830 H   0  0  0  0  0  0  0  0  0  0  0  0
   -1.1812    2.2298    2.3911 H   0  0  0  0  0  0  0  0  0  0  0  0
   -2.8006    3.7902    1.3233 H   0  0  0  0  0  0  0  0  0  0  0  0
   -1.5739    3.2816    0.1464 H   0  0  0  0  0  0  0  0  0  0  0  0
   -3.1881    2.5674    0.0992 H   0  0  0  0  0  0  0  0  0  0  0  0
   -4.3533   -0.8673   -1.1952 H   0  0  0  0  0  0  0  0  0  0  0  0
   -4.2039   -2.2480   -0.0753 H   0  0  0  0  0  0  0  0  0  0  0  0
   -5.8954    0.2635    0.4033 H   0  0  0  0  0  0  0  0  0  0  0  0
   -6.5172   -1.3386   -0.0189 H   0  0  0  0  0  0  0  0  0  0  0  0
   -5.7189   -1.0793    1.5412 H   0  0  0  0  0  0  0  0  0  0  0  0
  1  2  1  0  0  0  0
  2  3  1  0  0  0  0
  3  4  2  0  0  0  0
  4  5  2  0  0  0  0
  4  6  2  0  0  0  0
  6  7  1  0  0  0  0
  7  8  1  0  0  0  0
  4  9  1  0  0  0  0
  9 10  1  0  0  0  0
 10 11  1  0  0  0  0
 11 12  1  0  0  0  0
 12 13  2  0  0  0  0
 12 14  2  0  0  0  0
 14 15  1  0  0  0  0
 15 16  1  0  0  0  0
 12 17  2  0  0  0  0
 17 18  1  0  0  0  0
 18 19  1  0  0  0  0
  1 20  1  0  0  0  0
  1 21  1  0  0  0  0
  1 22  1  0  0  0  0
  2 23  1  0  0  0  0
  2 24  1  0  0  0  0
  7 25  1  0  0  0  0
  7 26  1  0  0  0  0
  8 27  1  0  0  0  0
  8 28  1  0  0  0  0
  8 29  1  0  0  0  0
 10 30  1  0  0  0  0
 10 31  1  0  0  0  0
 15 32  1  0  0  0  0
 15 33  1  0  0  0  0
 16 34  1  0  0  0  0
 16 35  1  0  0  0  0
 16 36  1  0  0  0  0
 18 37  1  0  0  0  0
 18 38  1  0  0  0  0
 19 39  1  0  0  0  0
 19 40  1  0  0  0  0
 19 41  1  0  0  0  0
M  END
