 xtb: 6.7.1 (edcfbbe)
          04092505203D

 41 40  0     0  0            999 V2000
    2.2697    2.4398    0.5057 C   0  0  0  0  0  0  0  0  0  0  0  0
    1.9384    1.7988    1.8358 C   0  0  0  0  0  0  0  0  0  0  0  0
    1.0778    0.6437    1.6911 O   0  0  0  0  0  0  0  0  0  0  0  0
    1.4690   -0.6940    0.9565 P   0  0  0  0  0  0  0  0  0  0  0  0
    0.5762   -2.2804    1.6843 S   0  0  0  0  0  0  0  0  0  0  0  0
    3.0489   -0.7037    1.1656 O   0  0  0  0  0  0  0  0  0  0  0  0
    3.8458   -1.8283    0.7471 C   0  0  0  0  0  0  0  0  0  0  0  0
    5.2311   -1.6624    1.3380 C   0  0  0  0  0  0  0  0  0  0  0  0
    1.3270   -0.4949   -1.1664 S   0  0  0  0  0  0  0  0  0  0  0  0
   -0.0340   -1.6283   -1.5216 C   0  0  0  0  0  0  0  0  0  0  0  0
   -1.5554   -0.8503   -2.1636 S   0  0  0  0  0  0  0  0  0  0  0  0
   -1.9075    0.6396   -0.6977 P   0  0  0  0  0  0  0  0  0  0  0  0
   -3.7123    1.3947   -0.7126 S   0  0  0  0  0  0  0  0  0  0  0  0
   -0.7213    1.6797   -0.8937 O   0  0  0  0  0  0  0  0  0  0  0  0
   -0.6308    2.4396   -2.1201 C   0  0  0  0  0  0  0  0  0  0  0  0
   -1.1542    3.8471   -1.9145 C   0  0  0  0  0  0  0  0  0  0  0  0
   -1.4056    0.0202    0.6778 O   0  0  0  0  0  0  0  0  0  0  0  0
   -2.3625   -0.4469    1.6476 C   0  0  0  0  0  0  0  0  0  0  0  0
   -3.0137   -1.7459    1.2179 C   0  0  0  0  0  0  0  0  0  0  0  0
    2.8477    1.7533   -0.1110 H   0  0  0  0  0  0  0  0  0  0  0  0
    1.3532    2.6965   -0.0176 H   0  0  0  0  0  0  0  0  0  0  0  0
    2.8516    3.3399    0.6780 H   0  0  0  0  0  0  0  0  0  0  0  0
    1.3498    2.4665    2.4673 H   0  0  0  0  0  0  0  0  0  0  0  0
    2.8434    1.4888    2.3617 H   0  0  0  0  0  0  0  0  0  0  0  0
    3.3655   -2.7465    1.1011 H   0  0  0  0  0  0  0  0  0  0  0  0
    3.8765   -1.8394   -0.3459 H   0  0  0  0  0  0  0  0  0  0  0  0
    5.8512   -2.4967    1.0274 H   0  0  0  0  0  0  0  0  0  0  0  0
    5.6763   -0.7349    0.9904 H   0  0  0  0  0  0  0  0  0  0  0  0
    5.1754   -1.6429    2.4228 H   0  0  0  0  0  0  0  0  0  0  0  0
   -0.2597   -2.1878   -0.6096 H   0  0  0  0  0  0  0  0  0  0  0  0
    0.2838   -2.2948   -2.3197 H   0  0  0  0  0  0  0  0  0  0  0  0
    0.4302    2.4356   -2.3808 H   0  0  0  0  0  0  0  0  0  0  0  0
   -1.1954    1.9255   -2.9060 H   0  0  0  0  0  0  0  0  0  0  0  0
   -2.2094    3.8184   -1.6512 H   0  0  0  0  0  0  0  0  0  0  0  0
   -0.6084    4.3406   -1.1153 H   0  0  0  0  0  0  0  0  0  0  0  0
   -1.0328    4.4098   -2.8343 H   0  0  0  0  0  0  0  0  0  0  0  0
   -1.7767   -0.5742    2.5593 H   0  0  0  0  0  0  0  0  0  0  0  0
   -3.1158    0.3334    1.7918 H   0  0  0  0  0  0  0  0  0  0  0  0
   -2.2646   -2.5260    1.1017 H   0  0  0  0  0  0  0  0  0  0  0  0
   -3.7280   -2.0530    1.9748 H   0  0  0  0  0  0  0  0  0  0  0  0
   -3.5380   -1.6026    0.2730 H   0  0  0  0  0  0  0  0  0  0  0  0
  1  2  1  0  0  0  0
  2  3  1  0  0  0  0
  3  4  2  0  0  0  0
  4  5  2  0  0  0  0
  4  6  2  0  0  0  0
  6  7  1  0  0  0  0
  7  8  1  0  0  0  0
  4  9  1  0  0  0  0
  9 10  1  0  0  0  0
 10 11  1  0  0  0  0
 11 12  1  0  0  0  0
 12 13  2  0  0  0  0
 12 14  2  0  0  0  0
 14 15  1  0  0  0  0
 15 16  1  0  0  0  0
 12 17  1  0  0  0  0
 17 18  1  0  0  0  0
 18 19  1  0  0  0  0
  1 20  1  0  0  0  0
  1 21  1  0  0  0  0
  1 22  1  0  0  0  0
  2 23  1  0  0  0  0
  2 24  1  0  0  0  0
  7 25  1  0  0  0  0
  7 26  1  0  0  0  0
  8 27  1  0  0  0  0
  8 28  1  0  0  0  0
  8 29  1  0  0  0  0
 10 30  1  0  0  0  0
 10 31  1  0  0  0  0
 15 32  1  0  0  0  0
 15 33  1  0  0  0  0
 16 34  1  0  0  0  0
 16 35  1  0  0  0  0
 16 36  1  0  0  0  0
 18 37  1  0  0  0  0
 18 38  1  0  0  0  0
 19 39  1  0  0  0  0
 19 40  1  0  0  0  0
 19 41  1  0  0  0  0
M  END
