 xtb: 6.7.1 (edcfbbe)
          04092507313D

 38 37  0     0  0            999 V2000
    1.5136   -4.3056   -1.3430 C   0  0  0  0  0  0  0  0  0  0  0  0
    2.7231   -3.5782   -0.7777 C   0  0  0  0  0  0  0  0  0  0  0  0
    2.3422   -2.3016   -0.2273 O   0  0  0  0  0  0  0  0  0  0  0  0
    2.3693   -1.2477   -1.0157 C   0  0  0  0  0  0  0  0  0  0  0  0
    2.7050   -1.2603   -2.1790 O   0  0  0  0  0  0  0  0  0  0  0  0
    1.9174    0.0059   -0.2885 C   0  0  0  0  0  0  0  0  0  0  0  0
    0.7800    0.6494   -1.0770 C   0  0  0  0  0  0  0  0  0  0  0  0
    1.1032    0.7962   -2.1136 H   0  0  0  0  0  0  0  0  0  0  0  0
    0.3384    1.9863   -0.5106 C   0  0  0  0  0  0  0  0  0  0  0  0
   -0.8299    2.2529   -0.3102 O   0  0  0  0  0  0  0  0  0  0  0  0
    1.3475    2.7870   -0.3133 O   0  0  0  0  0  0  0  0  0  0  0  0
    1.1021    4.0803    0.2829 C   0  0  0  0  0  0  0  0  0  0  0  0
    1.3057    4.0079    1.7870 C   0  0  0  0  0  0  0  0  0  0  0  0
   -0.6758   -0.4383   -1.1946 S   0  0  0  0  0  0  0  0  0  0  0  0
   -1.6352   -0.0578    0.6738 P   0  0  0  0  0  0  0  0  0  0  0  0
   -0.5801    0.5357    2.2121 S   0  0  0  0  0  0  0  0  0  0  0  0
   -2.9632    0.7663    0.4567 O   0  0  0  0  0  0  0  0  0  0  0  0
   -3.9097    0.4628   -0.5850 C   0  0  0  0  0  0  0  0  0  0  0  0
   -2.2802   -1.5116    0.9200 O   0  0  0  0  0  0  0  0  0  0  0  0
   -1.4596   -2.6328    1.2543 C   0  0  0  0  0  0  0  0  0  0  0  0
    1.0516   -3.7083   -2.1263 H   0  0  0  0  0  0  0  0  0  0  0  0
    1.8314   -5.2539   -1.7637 H   0  0  0  0  0  0  0  0  0  0  0  0
    0.7838   -4.4907   -0.5595 H   0  0  0  0  0  0  0  0  0  0  0  0
    3.4709   -3.4088   -1.5574 H   0  0  0  0  0  0  0  0  0  0  0  0
    3.1602   -4.1220    0.0598 H   0  0  0  0  0  0  0  0  0  0  0  0
    2.7507    0.7098   -0.2490 H   0  0  0  0  0  0  0  0  0  0  0  0
    1.6064   -0.2467    0.7262 H   0  0  0  0  0  0  0  0  0  0  0  0
    1.8289    4.7421   -0.1886 H   0  0  0  0  0  0  0  0  0  0  0  0
    0.0828    4.3904    0.0391 H   0  0  0  0  0  0  0  0  0  0  0  0
    0.6138    3.2914    2.2267 H   0  0  0  0  0  0  0  0  0  0  0  0
    2.3200    3.6949    2.0159 H   0  0  0  0  0  0  0  0  0  0  0  0
    1.1242    4.9854    2.2210 H   0  0  0  0  0  0  0  0  0  0  0  0
   -3.4351    0.5749   -1.5598 H   0  0  0  0  0  0  0  0  0  0  0  0
   -4.7063    1.1917   -0.4614 H   0  0  0  0  0  0  0  0  0  0  0  0
   -4.2857   -0.5515   -0.4630 H   0  0  0  0  0  0  0  0  0  0  0  0
   -0.8372   -2.9034    0.4010 H   0  0  0  0  0  0  0  0  0  0  0  0
   -2.1472   -3.4377    1.4998 H   0  0  0  0  0  0  0  0  0  0  0  0
   -0.8279   -2.3929    2.1114 H   0  0  0  0  0  0  0  0  0  0  0  0
  1  2  1  0  0  0  0
  2  3  1  0  0  0  0
  3  4  1  0  0  0  0
  4  5  2  0  0  0  0
  4  6  1  0  0  0  0
  6  7  1  0  0  0  0
  7  8  1  0  0  0  0
  7  9  1  0  0  0  0
  9 10  2  0  0  0  0
  9 11  4  0  0  0  0
 11 12  1  0  0  0  0
 12 13  1  0  0  0  0
  7 14  1  0  0  0  0
 14 15  1  0  0  0  0
 15 16  2  0  0  0  0
 15 17  2  0  0  0  0
 17 18  1  0  0  0  0
 15 19  1  0  0  0  0
 19 20  1  0  0  0  0
  1 21  1  0  0  0  0
  1 22  1  0  0  0  0
  1 23  1  0  0  0  0
  2 24  1  0  0  0  0
  2 25  1  0  0  0  0
  6 26  1  0  0  0  0
  6 27  1  0  0  0  0
 12 28  1  0  0  0  0
 12 29  1  0  0  0  0
 13 30  1  0  0  0  0
 13 31  1  0  0  0  0
 13 32  1  0  0  0  0
 18 33  1  0  0  0  0
 18 34  1  0  0  0  0
 18 35  1  0  0  0  0
 20 36  1  0  0  0  0
 20 37  1  0  0  0  0
 20 38  1  0  0  0  0
M  END
