 xtb: 6.7.1 (edcfbbe)
          04092505203D

 41 40  0     0  0            999 V2000
    4.5429   -2.0984    0.1480 C   0  0  0  0  0  0  0  0  0  0  0  0
    4.4577   -0.5882    0.2422 C   0  0  0  0  0  0  0  0  0  0  0  0
    3.7129   -0.0627   -0.8895 O   0  0  0  0  0  0  0  0  0  0  0  0
    2.2837    0.5848   -0.7586 P   0  0  0  0  0  0  0  0  0  0  0  0
    1.5932    1.0992   -2.5131 S   0  0  0  0  0  0  0  0  0  0  0  0
    2.5840    1.7658    0.2668 O   0  0  0  0  0  0  0  0  0  0  0  0
    1.6348    2.7822    0.6351 C   0  0  0  0  0  0  0  0  0  0  0  0
    1.0045    2.4748    1.9795 C   0  0  0  0  0  0  0  0  0  0  0  0
    1.1324   -0.8137    0.3584 S   0  0  0  0  0  0  0  0  0  0  0  0
    0.0817   -1.4618   -0.9843 C   0  0  0  0  0  0  0  0  0  0  0  0
   -1.5473   -1.9435   -0.3829 S   0  0  0  0  0  0  0  0  0  0  0  0
   -2.1639   -0.0411    0.3610 P   0  0  0  0  0  0  0  0  0  0  0  0
   -1.5885    1.5430   -0.6341 S   0  0  0  0  0  0  0  0  0  0  0  0
   -1.6977    0.0075    1.8651 O   0  0  0  0  0  0  0  0  0  0  0  0
   -2.0322   -1.0257    2.8324 C   0  0  0  0  0  0  0  0  0  0  0  0
   -0.7779   -1.7602    3.2593 C   0  0  0  0  0  0  0  0  0  0  0  0
   -3.7380   -0.2187    0.5213 O   0  0  0  0  0  0  0  0  0  0  0  0
   -4.6740    0.0668   -0.5320 C   0  0  0  0  0  0  0  0  0  0  0  0
   -4.5142   -0.8625   -1.7180 C   0  0  0  0  0  0  0  0  0  0  0  0
    3.5587   -2.5437    0.2687 H   0  0  0  0  0  0  0  0  0  0  0  0
    4.9460   -2.3870   -0.8187 H   0  0  0  0  0  0  0  0  0  0  0  0
    5.1965   -2.4649    0.9331 H   0  0  0  0  0  0  0  0  0  0  0  0
    5.4433   -0.1267    0.1676 H   0  0  0  0  0  0  0  0  0  0  0  0
    3.9736   -0.2722    1.1686 H   0  0  0  0  0  0  0  0  0  0  0  0
    2.2192    3.7035    0.6751 H   0  0  0  0  0  0  0  0  0  0  0  0
    0.8754    2.8721   -0.1485 H   0  0  0  0  0  0  0  0  0  0  0  0
    1.7776    2.3007    2.7226 H   0  0  0  0  0  0  0  0  0  0  0  0
    0.3954    3.3207    2.2818 H   0  0  0  0  0  0  0  0  0  0  0  0
    0.3662    1.5961    1.9141 H   0  0  0  0  0  0  0  0  0  0  0  0
    0.5310   -2.3603   -1.4003 H   0  0  0  0  0  0  0  0  0  0  0  0
   -0.0131   -0.6804   -1.7441 H   0  0  0  0  0  0  0  0  0  0  0  0
   -2.4873   -0.4919    3.6678 H   0  0  0  0  0  0  0  0  0  0  0  0
   -2.7624   -1.7061    2.3895 H   0  0  0  0  0  0  0  0  0  0  0  0
   -0.0460   -1.0576    3.6468 H   0  0  0  0  0  0  0  0  0  0  0  0
   -1.0348   -2.4763    4.0331 H   0  0  0  0  0  0  0  0  0  0  0  0
   -0.3370   -2.2865    2.4160 H   0  0  0  0  0  0  0  0  0  0  0  0
   -5.6463   -0.0558   -0.0526 H   0  0  0  0  0  0  0  0  0  0  0  0
   -4.5397    1.1086   -0.8393 H   0  0  0  0  0  0  0  0  0  0  0  0
   -4.5307   -1.8999   -1.3931 H   0  0  0  0  0  0  0  0  0  0  0  0
   -5.3250   -0.6901   -2.4186 H   0  0  0  0  0  0  0  0  0  0  0  0
   -3.5690   -0.6657   -2.2223 H   0  0  0  0  0  0  0  0  0  0  0  0
  1  2  1  0  0  0  0
  2  3  1  0  0  0  0
  3  4  2  0  0  0  0
  4  5  2  0  0  0  0
  4  6  2  0  0  0  0
  6  7  1  0  0  0  0
  7  8  1  0  0  0  0
  4  9  1  0  0  0  0
  9 10  1  0  0  0  0
 10 11  1  0  0  0  0
 11 12  1  0  0  0  0
 12 13  2  0  0  0  0
 12 14  2  0  0  0  0
 14 15  1  0  0  0  0
 15 16  1  0  0  0  0
 12 17  2  0  0  0  0
 17 18  1  0  0  0  0
 18 19  1  0  0  0  0
  1 20  1  0  0  0  0
  1 21  1  0  0  0  0
  1 22  1  0  0  0  0
  2 23  1  0  0  0  0
  2 24  1  0  0  0  0
  7 25  1  0  0  0  0
  7 26  1  0  0  0  0
  8 27  1  0  0  0  0
  8 28  1  0  0  0  0
  8 29  1  0  0  0  0
 10 30  1  0  0  0  0
 10 31  1  0  0  0  0
 15 32  1  0  0  0  0
 15 33  1  0  0  0  0
 16 34  1  0  0  0  0
 16 35  1  0  0  0  0
 16 36  1  0  0  0  0
 18 37  1  0  0  0  0
 18 38  1  0  0  0  0
 19 39  1  0  0  0  0
 19 40  1  0  0  0  0
 19 41  1  0  0  0  0
M  END
