 xtb: 6.7.1 (edcfbbe)
          04092505203D

 41 40  0     0  0            999 V2000
    2.6660   -1.0900   -2.6445 C   0  0  0  0  0  0  0  0  0  0  0  0
    2.9083    0.2543   -1.9882 C   0  0  0  0  0  0  0  0  0  0  0  0
    3.2241    0.0944   -0.5921 O   0  0  0  0  0  0  0  0  0  0  0  0
    2.1902    0.2548    0.5993 P   0  0  0  0  0  0  0  0  0  0  0  0
    1.2359    1.9580    0.7350 S   0  0  0  0  0  0  0  0  0  0  0  0
    3.1102    0.0715    1.8670 O   0  0  0  0  0  0  0  0  0  0  0  0
    3.9614   -1.0806    2.0900 C   0  0  0  0  0  0  0  0  0  0  0  0
    5.3750   -0.8101    1.6177 C   0  0  0  0  0  0  0  0  0  0  0  0
    1.0014   -1.5102    0.5412 S   0  0  0  0  0  0  0  0  0  0  0  0
   -0.3896   -0.9162    1.5606 C   0  0  0  0  0  0  0  0  0  0  0  0
   -1.9998   -1.2628    0.8205 S   0  0  0  0  0  0  0  0  0  0  0  0
   -2.0615    0.3347   -0.5927 P   0  0  0  0  0  0  0  0  0  0  0  0
   -0.6894    0.3176   -1.9882 S   0  0  0  0  0  0  0  0  0  0  0  0
   -2.0213    1.6642    0.2546 O   0  0  0  0  0  0  0  0  0  0  0  0
   -3.1439    2.2948    0.9173 C   0  0  0  0  0  0  0  0  0  0  0  0
   -3.7307    1.4436    2.0238 C   0  0  0  0  0  0  0  0  0  0  0  0
   -3.5554    0.2970   -1.1293 O   0  0  0  0  0  0  0  0  0  0  0  0
   -3.9479   -0.5128   -2.2528 C   0  0  0  0  0  0  0  0  0  0  0  0
   -3.8098   -1.9935   -1.9664 C   0  0  0  0  0  0  0  0  0  0  0  0
    2.5383   -0.9402   -3.7115 H   0  0  0  0  0  0  0  0  0  0  0  0
    3.5089   -1.7517   -2.4677 H   0  0  0  0  0  0  0  0  0  0  0  0
    1.7616   -1.5471   -2.2499 H   0  0  0  0  0  0  0  0  0  0  0  0
    2.0356    0.9054   -2.0935 H   0  0  0  0  0  0  0  0  0  0  0  0
    3.7834    0.7514   -2.4111 H   0  0  0  0  0  0  0  0  0  0  0  0
    3.9272   -1.2348    3.1700 H   0  0  0  0  0  0  0  0  0  0  0  0
    3.5286   -1.9444    1.5772 H   0  0  0  0  0  0  0  0  0  0  0  0
    5.7677    0.0762    2.1086 H   0  0  0  0  0  0  0  0  0  0  0  0
    5.9997   -1.6633    1.8629 H   0  0  0  0  0  0  0  0  0  0  0  0
    5.3908   -0.6497    0.5433 H   0  0  0  0  0  0  0  0  0  0  0  0
   -0.2710    0.1627    1.6966 H   0  0  0  0  0  0  0  0  0  0  0  0
   -0.3742   -1.4462    2.5089 H   0  0  0  0  0  0  0  0  0  0  0  0
   -2.7085    3.2174    1.3055 H   0  0  0  0  0  0  0  0  0  0  0  0
   -3.8967    2.5266    0.1616 H   0  0  0  0  0  0  0  0  0  0  0  0
   -4.1740    0.5392    1.6134 H   0  0  0  0  0  0  0  0  0  0  0  0
   -2.9615    1.1682    2.7413 H   0  0  0  0  0  0  0  0  0  0  0  0
   -4.5001    2.0162    2.5326 H   0  0  0  0  0  0  0  0  0  0  0  0
   -4.9868   -0.2281   -2.4252 H   0  0  0  0  0  0  0  0  0  0  0  0
   -3.3343   -0.2290   -3.1134 H   0  0  0  0  0  0  0  0  0  0  0  0
   -2.7576   -2.2533   -1.8576 H   0  0  0  0  0  0  0  0  0  0  0  0
   -4.3315   -2.2545   -1.0491 H   0  0  0  0  0  0  0  0  0  0  0  0
   -4.2269   -2.5587   -2.7936 H   0  0  0  0  0  0  0  0  0  0  0  0
  1  2  1  0  0  0  0
  2  3  1  0  0  0  0
  3  4  2  0  0  0  0
  4  5  2  0  0  0  0
  4  6  2  0  0  0  0
  6  7  1  0  0  0  0
  7  8  1  0  0  0  0
  4  9  1  0  0  0  0
  9 10  1  0  0  0  0
 10 11  1  0  0  0  0
 11 12  1  0  0  0  0
 12 13  2  0  0  0  0
 12 14  2  0  0  0  0
 14 15  1  0  0  0  0
 15 16  1  0  0  0  0
 12 17  2  0  0  0  0
 17 18  1  0  0  0  0
 18 19  1  0  0  0  0
  1 20  1  0  0  0  0
  1 21  1  0  0  0  0
  1 22  1  0  0  0  0
  2 23  1  0  0  0  0
  2 24  1  0  0  0  0
  7 25  1  0  0  0  0
  7 26  1  0  0  0  0
  8 27  1  0  0  0  0
  8 28  1  0  0  0  0
  8 29  1  0  0  0  0
 10 30  1  0  0  0  0
 10 31  1  0  0  0  0
 15 32  1  0  0  0  0
 15 33  1  0  0  0  0
 16 34  1  0  0  0  0
 16 35  1  0  0  0  0
 16 36  1  0  0  0  0
 18 37  1  0  0  0  0
 18 38  1  0  0  0  0
 19 39  1  0  0  0  0
 19 40  1  0  0  0  0
 19 41  1  0  0  0  0
M  END
