 xtb: 6.7.1 (edcfbbe)
          04092505213D

 41 40  0     0  0            999 V2000
    1.3160    0.6776    2.8565 C   0  0  0  0  0  0  0  0  0  0  0  0
    2.7253    0.1560    2.6670 C   0  0  0  0  0  0  0  0  0  0  0  0
    3.2113    0.4070    1.3379 O   0  0  0  0  0  0  0  0  0  0  0  0
    2.7298   -0.4362    0.0769 P   0  0  0  0  0  0  0  0  0  0  0  0
    2.4574   -2.3500    0.4422 S   0  0  0  0  0  0  0  0  0  0  0  0
    3.8114   -0.0247   -1.0029 O   0  0  0  0  0  0  0  0  0  0  0  0
    5.2293    0.0659   -0.7439 C   0  0  0  0  0  0  0  0  0  0  0  0
    5.8237   -1.2628   -0.3243 C   0  0  0  0  0  0  0  0  0  0  0  0
    1.0927    0.5746   -0.8131 S   0  0  0  0  0  0  0  0  0  0  0  0
   -0.1554   -0.7465   -0.7787 C   0  0  0  0  0  0  0  0  0  0  0  0
   -1.4090   -0.5296    0.5045 S   0  0  0  0  0  0  0  0  0  0  0  0
   -2.9146    0.4694   -0.6464 P   0  0  0  0  0  0  0  0  0  0  0  0
   -2.4674    0.9091   -2.4976 S   0  0  0  0  0  0  0  0  0  0  0  0
   -3.3878    1.6904    0.2612 O   0  0  0  0  0  0  0  0  0  0  0  0
   -2.7609    2.9836    0.2330 C   0  0  0  0  0  0  0  0  0  0  0  0
   -1.3896    2.9705    0.8779 C   0  0  0  0  0  0  0  0  0  0  0  0
   -4.1689   -0.4796   -0.5558 O   0  0  0  0  0  0  0  0  0  0  0  0
   -4.6758   -1.0023    0.7015 C   0  0  0  0  0  0  0  0  0  0  0  0
   -4.4906   -2.5058    0.7421 C   0  0  0  0  0  0  0  0  0  0  0  0
    1.0377    0.5885    3.9015 H   0  0  0  0  0  0  0  0  0  0  0  0
    1.2585    1.7200    2.5540 H   0  0  0  0  0  0  0  0  0  0  0  0
    0.6156    0.0957    2.2581 H   0  0  0  0  0  0  0  0  0  0  0  0
    2.7690   -0.9216    2.8566 H   0  0  0  0  0  0  0  0  0  0  0  0
    3.4367    0.6761    3.3102 H   0  0  0  0  0  0  0  0  0  0  0  0
    5.6389    0.4044   -1.6970 H   0  0  0  0  0  0  0  0  0  0  0  0
    5.3912    0.8272    0.0221 H   0  0  0  0  0  0  0  0  0  0  0  0
    6.8990   -1.1603   -0.2175 H   0  0  0  0  0  0  0  0  0  0  0  0
    5.4002   -1.5808    0.6277 H   0  0  0  0  0  0  0  0  0  0  0  0
    5.6071   -2.0258   -1.0685 H   0  0  0  0  0  0  0  0  0  0  0  0
    0.3493   -1.6950   -0.5804 H   0  0  0  0  0  0  0  0  0  0  0  0
   -0.6474   -0.7469   -1.7511 H   0  0  0  0  0  0  0  0  0  0  0  0
   -2.6972    3.3161   -0.8079 H   0  0  0  0  0  0  0  0  0  0  0  0
   -3.4568    3.6195    0.7827 H   0  0  0  0  0  0  0  0  0  0  0  0
   -1.0312    3.9905    0.9717 H   0  0  0  0  0  0  0  0  0  0  0  0
   -1.4424    2.5137    1.8631 H   0  0  0  0  0  0  0  0  0  0  0  0
   -0.6879    2.4104    0.2611 H   0  0  0  0  0  0  0  0  0  0  0  0
   -4.1562   -0.5147    1.5289 H   0  0  0  0  0  0  0  0  0  0  0  0
   -5.7320   -0.7298    0.7183 H   0  0  0  0  0  0  0  0  0  0  0  0
   -4.9556   -2.9608   -0.1280 H   0  0  0  0  0  0  0  0  0  0  0  0
   -3.4332   -2.7586    0.7488 H   0  0  0  0  0  0  0  0  0  0  0  0
   -4.9542   -2.8965    1.6422 H   0  0  0  0  0  0  0  0  0  0  0  0
  1  2  1  0  0  0  0
  2  3  1  0  0  0  0
  3  4  2  0  0  0  0
  4  5  2  0  0  0  0
  4  6  2  0  0  0  0
  6  7  1  0  0  0  0
  7  8  1  0  0  0  0
  4  9  1  0  0  0  0
  9 10  1  0  0  0  0
 10 11  1  0  0  0  0
 11 12  1  0  0  0  0
 12 13  2  0  0  0  0
 12 14  2  0  0  0  0
 14 15  1  0  0  0  0
 15 16  1  0  0  0  0
 12 17  2  0  0  0  0
 17 18  1  0  0  0  0
 18 19  1  0  0  0  0
  1 20  1  0  0  0  0
  1 21  1  0  0  0  0
  1 22  1  0  0  0  0
  2 23  1  0  0  0  0
  2 24  1  0  0  0  0
  7 25  1  0  0  0  0
  7 26  1  0  0  0  0
  8 27  1  0  0  0  0
  8 28  1  0  0  0  0
  8 29  1  0  0  0  0
 10 30  1  0  0  0  0
 10 31  1  0  0  0  0
 15 32  1  0  0  0  0
 15 33  1  0  0  0  0
 16 34  1  0  0  0  0
 16 35  1  0  0  0  0
 16 36  1  0  0  0  0
 18 37  1  0  0  0  0
 18 38  1  0  0  0  0
 19 39  1  0  0  0  0
 19 40  1  0  0  0  0
 19 41  1  0  0  0  0
M  END
