 xtb: 6.7.1 (edcfbbe)
          04032517433D

 12 12  0     0  0            999 V2000
   -1.0917    0.1891    0.0021 C   0  0  0  0  0  0  0  0  0  0  0  0
   -0.1890   -1.0916   -0.0021 C   0  0  0  0  0  0  0  0  0  0  0  0
    1.0918   -0.1890    0.0022 C   0  0  0  0  0  0  0  0  0  0  0  0
    0.1891    1.0916   -0.0021 C   0  0  0  0  0  0  0  0  0  0  0  0
    0.3218    1.8574   -1.0879 F   0  0  0  0  0  0  0  0  0  0  0  0
    0.3236    1.8679    1.0758 F   0  0  0  0  0  0  0  0  0  0  0  0
    1.8682   -0.3237   -1.0757 F   0  0  0  0  0  0  0  0  0  0  0  0
    1.8575   -0.3218    1.0880 F   0  0  0  0  0  0  0  0  0  0  0  0
   -0.3240   -1.8679    1.0757 F   0  0  0  0  0  0  0  0  0  0  0  0
   -0.3217   -1.8574   -1.0879 F   0  0  0  0  0  0  0  0  0  0  0  0
   -1.8576    0.3217    1.0878 F   0  0  0  0  0  0  0  0  0  0  0  0
   -1.8680    0.3237   -1.0758 F   0  0  0  0  0  0  0  0  0  0  0  0
  1  2  1  0  0  0  0
  2  3  1  0  0  0  0
  1  4  1  0  0  0  0
  3  4  1  0  0  0  0
  4  5  1  0  0  0  0
  4  6  1  0  0  0  0
  3  7  1  0  0  0  0
  3  8  1  0  0  0  0
  2  9  1  0  0  0  0
  2 10  1  0  0  0  0
  1 11  1  0  0  0  0
  1 12  1  0  0  0  0
M  END
