 xtb: 6.7.1 (edcfbbe)
          04092505213D

 41 40  0     0  0            999 V2000
    1.3180   -1.8803    2.2309 C   0  0  0  0  0  0  0  0  0  0  0  0
    2.8092   -1.7482    2.0005 C   0  0  0  0  0  0  0  0  0  0  0  0
    3.1542   -0.4996    1.3736 O   0  0  0  0  0  0  0  0  0  0  0  0
    2.7857   -0.1613   -0.1386 P   0  0  0  0  0  0  0  0  0  0  0  0
    2.9500   -1.6391   -1.4065 S   0  0  0  0  0  0  0  0  0  0  0  0
    3.7927    1.0100   -0.4490 O   0  0  0  0  0  0  0  0  0  0  0  0
    3.9080    2.1805    0.4009 C   0  0  0  0  0  0  0  0  0  0  0  0
    4.6068    3.2616   -0.3961 C   0  0  0  0  0  0  0  0  0  0  0  0
    0.8819    0.8311   -0.0619 S   0  0  0  0  0  0  0  0  0  0  0  0
   -0.0249   -0.1613   -1.2732 C   0  0  0  0  0  0  0  0  0  0  0  0
   -1.2394   -1.2584   -0.5115 S   0  0  0  0  0  0  0  0  0  0  0  0
   -2.7262    0.2448   -0.2124 P   0  0  0  0  0  0  0  0  0  0  0  0
   -2.9404    1.5199   -1.6815 S   0  0  0  0  0  0  0  0  0  0  0  0
   -2.3438    1.0252    1.0992 O   0  0  0  0  0  0  0  0  0  0  0  0
   -2.1225    0.3788    2.3798 C   0  0  0  0  0  0  0  0  0  0  0  0
   -1.1652    1.2425    3.1747 C   0  0  0  0  0  0  0  0  0  0  0  0
   -3.9880   -0.5922    0.2695 O   0  0  0  0  0  0  0  0  0  0  0  0
   -4.5206   -1.7562   -0.3902 C   0  0  0  0  0  0  0  0  0  0  0  0
   -4.8286   -1.5115   -1.8523 C   0  0  0  0  0  0  0  0  0  0  0  0
    1.1244   -2.7740    2.8153 H   0  0  0  0  0  0  0  0  0  0  0  0
    0.9419   -1.0117    2.7651 H   0  0  0  0  0  0  0  0  0  0  0  0
    0.7985   -1.9702    1.2773 H   0  0  0  0  0  0  0  0  0  0  0  0
    3.1770   -2.5644    1.3713 H   0  0  0  0  0  0  0  0  0  0  0  0
    3.3614   -1.7261    2.9412 H   0  0  0  0  0  0  0  0  0  0  0  0
    2.9032    2.4909    0.7029 H   0  0  0  0  0  0  0  0  0  0  0  0
    4.4804    1.8954    1.2854 H   0  0  0  0  0  0  0  0  0  0  0  0
    4.0173    3.5236   -1.2703 H   0  0  0  0  0  0  0  0  0  0  0  0
    4.7323    4.1402    0.2284 H   0  0  0  0  0  0  0  0  0  0  0  0
    5.5805    2.9099   -0.7246 H   0  0  0  0  0  0  0  0  0  0  0  0
    0.6825   -0.7897   -1.8190 H   0  0  0  0  0  0  0  0  0  0  0  0
   -0.5507    0.5244   -1.9398 H   0  0  0  0  0  0  0  0  0  0  0  0
   -3.0918    0.2903    2.8734 H   0  0  0  0  0  0  0  0  0  0  0  0
   -1.7131   -0.6206    2.2037 H   0  0  0  0  0  0  0  0  0  0  0  0
   -0.9940    0.7872    4.1450 H   0  0  0  0  0  0  0  0  0  0  0  0
   -0.2219    1.3407    2.6430 H   0  0  0  0  0  0  0  0  0  0  0  0
   -1.5867    2.2341    3.3112 H   0  0  0  0  0  0  0  0  0  0  0  0
   -3.7995   -2.5706   -0.2778 H   0  0  0  0  0  0  0  0  0  0  0  0
   -5.4260   -1.9797    0.1768 H   0  0  0  0  0  0  0  0  0  0  0  0
   -5.3013   -2.3923   -2.2746 H   0  0  0  0  0  0  0  0  0  0  0  0
   -5.4926   -0.6574   -1.9629 H   0  0  0  0  0  0  0  0  0  0  0  0
   -3.9105   -1.3046   -2.4010 H   0  0  0  0  0  0  0  0  0  0  0  0
  1  2  1  0  0  0  0
  2  3  1  0  0  0  0
  3  4  2  0  0  0  0
  4  5  2  0  0  0  0
  4  6  2  0  0  0  0
  6  7  1  0  0  0  0
  7  8  1  0  0  0  0
  4  9  1  0  0  0  0
  9 10  1  0  0  0  0
 10 11  1  0  0  0  0
 11 12  1  0  0  0  0
 12 13  2  0  0  0  0
 12 14  2  0  0  0  0
 14 15  1  0  0  0  0
 15 16  1  0  0  0  0
 12 17  2  0  0  0  0
 17 18  1  0  0  0  0
 18 19  1  0  0  0  0
  1 20  1  0  0  0  0
  1 21  1  0  0  0  0
  1 22  1  0  0  0  0
  2 23  1  0  0  0  0
  2 24  1  0  0  0  0
  7 25  1  0  0  0  0
  7 26  1  0  0  0  0
  8 27  1  0  0  0  0
  8 28  1  0  0  0  0
  8 29  1  0  0  0  0
 10 30  1  0  0  0  0
 10 31  1  0  0  0  0
 15 32  1  0  0  0  0
 15 33  1  0  0  0  0
 16 34  1  0  0  0  0
 16 35  1  0  0  0  0
 16 36  1  0  0  0  0
 18 37  1  0  0  0  0
 18 38  1  0  0  0  0
 19 39  1  0  0  0  0
 19 40  1  0  0  0  0
 19 41  1  0  0  0  0
M  END
