41
 xtb: 6.7.1 (edcfbbe)
C            4.49317837297191       -1.06495682551387       -2.44679853874984
C            4.58951574920916       -1.35248551554945       -0.96920894188360
O            3.26616736545559       -1.48930503729300       -0.34482813119735
P            2.34887957177348       -0.22621458457179        0.05575613039986
S            3.26107355941203        1.43768972323062        0.49567111542877
O            1.41761267247245       -0.87088727789211        1.19517048046517
C            1.76059924204785       -0.76789841137893        2.62152218704272
C            2.92179110439026       -1.65871136053316        2.98908830872423
S            1.00885605027284       -0.16888876836127       -1.58202880544361
C            0.21568091246657        1.46816038896636       -1.33123712460150
S           -0.79026445632049        1.72304243900270        0.18341678626321
P           -2.35445529454218        0.33250811559101       -0.14019889659808
S           -3.04387019045391        0.21249720159898       -1.95798689871729
O           -3.38997434994239        0.76072460456935        1.01805429878227
C           -4.55812861722841        1.61882384147166        0.77223743012546
C           -4.18647420722954        3.07931805561121        0.71335234250224
O           -1.72447829548306       -1.00364396226763        0.49074375556065
C           -2.22000474293670       -2.34007246616620        0.13088443554957
C           -3.55294829884620       -2.63627139412856        0.77246197656751
H            5.50186139249662       -1.09232624946587       -2.87201322535635
H            3.88493257368902       -1.81909281324182       -2.95478401258981
H            4.06986290757402       -0.07502568424676       -2.63915574122942
H            5.14194523460026       -0.57368116768986       -0.43520307310829
H            5.06105058240158       -2.31857580062558       -0.77819201542760
H            1.95955094261662        0.28357943586204        2.85065128703364
H            0.84157663670784       -1.07394579119126        3.12551709155915
H            3.85052803597204       -1.32942238414342        2.51298824000039
H            3.06346272048029       -1.61710567215863        4.07411461514838
H            2.72424601522201       -2.69665561446608        2.70626476634964
H           -0.41348572490303        1.61875272406583       -2.21370546315380
H            0.98615871463505        2.24417438732478       -1.29758510550306
H           -5.04400002319234        1.28089264980913       -0.14787134006113
H           -5.21238228008786        1.40473942238284        1.61974989609831
H           -3.57149041808022        3.30477978369689       -0.16237898932156
H           -5.10665126315780        3.66894304279872        0.64436112338667
H           -3.64942218584276        3.38486845968460        1.61617906370790
H           -2.26430944726606       -2.40713858427090       -0.96053351911221
H           -1.43724353271413       -3.00763225767993        0.49690678531633
H           -4.34203594850206       -1.98719046159028        0.38045393397693
H           -3.82520109595724       -3.67340406302042        0.55025881311934
H           -3.49981597867610       -2.51824761806898        1.85850565958231
