 xtb: 6.7.1 (edcfbbe)
          04092505203D

 41 40  0     0  0            999 V2000
    3.1940    2.3750    2.2506 C   0  0  0  0  0  0  0  0  0  0  0  0
    1.8025    1.7966    2.1063 C   0  0  0  0  0  0  0  0  0  0  0  0
    1.6098    1.1915    0.8093 O   0  0  0  0  0  0  0  0  0  0  0  0
    2.3334   -0.1550    0.3915 P   0  0  0  0  0  0  0  0  0  0  0  0
    2.6883   -1.4284    1.8436 S   0  0  0  0  0  0  0  0  0  0  0  0
    3.6164    0.3894   -0.3692 O   0  0  0  0  0  0  0  0  0  0  0  0
    4.7471   -0.4466   -0.6697 C   0  0  0  0  0  0  0  0  0  0  0  0
    4.4186   -1.4991   -1.7088 C   0  0  0  0  0  0  0  0  0  0  0  0
    1.0308   -0.7950   -1.1495 S   0  0  0  0  0  0  0  0  0  0  0  0
   -0.1238   -1.6711   -0.0585 C   0  0  0  0  0  0  0  0  0  0  0  0
   -1.1538   -0.5511    0.9120 S   0  0  0  0  0  0  0  0  0  0  0  0
   -2.4148    0.0758   -0.6987 P   0  0  0  0  0  0  0  0  0  0  0  0
   -2.7559   -1.3024   -2.0459 S   0  0  0  0  0  0  0  0  0  0  0  0
   -1.7836    1.3428   -1.3802 O   0  0  0  0  0  0  0  0  0  0  0  0
   -1.1148    2.4731   -0.7682 C   0  0  0  0  0  0  0  0  0  0  0  0
   -1.8465    3.0339    0.4317 C   0  0  0  0  0  0  0  0  0  0  0  0
   -3.6755    0.6750    0.0574 O   0  0  0  0  0  0  0  0  0  0  0  0
   -4.5661   -0.1174    0.8674 C   0  0  0  0  0  0  0  0  0  0  0  0
   -5.6886   -0.7113    0.0389 C   0  0  0  0  0  0  0  0  0  0  0  0
    3.2673    2.9057    3.1946 H   0  0  0  0  0  0  0  0  0  0  0  0
    3.9312    1.5731    2.2378 H   0  0  0  0  0  0  0  0  0  0  0  0
    3.4043    3.0581    1.4320 H   0  0  0  0  0  0  0  0  0  0  0  0
    1.0337    2.5688    2.1529 H   0  0  0  0  0  0  0  0  0  0  0  0
    1.6135    1.0380    2.8724 H   0  0  0  0  0  0  0  0  0  0  0  0
    5.5025    0.2532   -1.0295 H   0  0  0  0  0  0  0  0  0  0  0  0
    5.0855   -0.9175    0.2590 H   0  0  0  0  0  0  0  0  0  0  0  0
    3.7058   -2.2158   -1.3022 H   0  0  0  0  0  0  0  0  0  0  0  0
    3.9826   -1.0371   -2.5912 H   0  0  0  0  0  0  0  0  0  0  0  0
    5.3256   -2.0258   -1.9879 H   0  0  0  0  0  0  0  0  0  0  0  0
    0.4371   -2.2834    0.6479 H   0  0  0  0  0  0  0  0  0  0  0  0
   -0.7621   -2.2790   -0.7013 H   0  0  0  0  0  0  0  0  0  0  0  0
   -0.1037    2.1552   -0.5001 H   0  0  0  0  0  0  0  0  0  0  0  0
   -1.0642    3.1976   -1.5828 H   0  0  0  0  0  0  0  0  0  0  0  0
   -1.8490    2.3131    1.2474 H   0  0  0  0  0  0  0  0  0  0  0  0
   -1.3420    3.9385    0.7584 H   0  0  0  0  0  0  0  0  0  0  0  0
   -2.8737    3.2722    0.1682 H   0  0  0  0  0  0  0  0  0  0  0  0
   -3.9924   -0.8998    1.3717 H   0  0  0  0  0  0  0  0  0  0  0  0
   -4.9524    0.5856    1.6080 H   0  0  0  0  0  0  0  0  0  0  0  0
   -5.2900   -1.4037   -0.6993 H   0  0  0  0  0  0  0  0  0  0  0  0
   -6.3719   -1.2440    0.6924 H   0  0  0  0  0  0  0  0  0  0  0  0
   -6.2272    0.0767   -0.4801 H   0  0  0  0  0  0  0  0  0  0  0  0
  1  2  1  0  0  0  0
  2  3  1  0  0  0  0
  3  4  2  0  0  0  0
  4  5  2  0  0  0  0
  4  6  2  0  0  0  0
  6  7  1  0  0  0  0
  7  8  1  0  0  0  0
  4  9  1  0  0  0  0
  9 10  1  0  0  0  0
 10 11  1  0  0  0  0
 11 12  1  0  0  0  0
 12 13  2  0  0  0  0
 12 14  2  0  0  0  0
 14 15  1  0  0  0  0
 15 16  1  0  0  0  0
 12 17  2  0  0  0  0
 17 18  1  0  0  0  0
 18 19  1  0  0  0  0
  1 20  1  0  0  0  0
  1 21  1  0  0  0  0
  1 22  1  0  0  0  0
  2 23  1  0  0  0  0
  2 24  1  0  0  0  0
  7 25  1  0  0  0  0
  7 26  1  0  0  0  0
  8 27  1  0  0  0  0
  8 28  1  0  0  0  0
  8 29  1  0  0  0  0
 10 30  1  0  0  0  0
 10 31  1  0  0  0  0
 15 32  1  0  0  0  0
 15 33  1  0  0  0  0
 16 34  1  0  0  0  0
 16 35  1  0  0  0  0
 16 36  1  0  0  0  0
 18 37  1  0  0  0  0
 18 38  1  0  0  0  0
 19 39  1  0  0  0  0
 19 40  1  0  0  0  0
 19 41  1  0  0  0  0
M  END
