 xtb: 6.7.1 (edcfbbe)
          04092514023D

 41 40  0     0  0            999 V2000
    1.5895    0.1554   -3.5320 C   0  0  0  0  0  0  0  0  0  0  0  0
    2.4462    0.1609   -2.2835 C   0  0  0  0  0  0  0  0  0  0  0  0
    1.7218   -0.5270   -1.2350 O   0  0  0  0  0  0  0  0  0  0  0  0
    2.2427   -0.4689    0.2624 P   0  0  0  0  0  0  0  0  0  0  0  0
    2.7501    1.3020    0.9431 S   0  0  0  0  0  0  0  0  0  0  0  0
    3.4462   -1.5123    0.1975 O   0  0  0  0  0  0  0  0  0  0  0  0
    4.5243   -1.5467    1.1505 C   0  0  0  0  0  0  0  0  0  0  0  0
    4.0850   -2.0502    2.5104 C   0  0  0  0  0  0  0  0  0  0  0  0
    0.6855   -1.4958    1.2363 S   0  0  0  0  0  0  0  0  0  0  0  0
   -0.1259   -0.0930    2.0959 C   0  0  0  0  0  0  0  0  0  0  0  0
   -1.9269   -0.1632    1.9897 S   0  0  0  0  0  0  0  0  0  0  0  0
   -2.1705    0.3674   -0.0413 P   0  0  0  0  0  0  0  0  0  0  0  0
   -0.8632    1.6583   -0.7421 S   0  0  0  0  0  0  0  0  0  0  0  0
   -3.7034    0.7767   -0.1055 O   0  0  0  0  0  0  0  0  0  0  0  0
   -4.2146    2.0107    0.4399 C   0  0  0  0  0  0  0  0  0  0  0  0
   -4.4321    3.0243   -0.6674 C   0  0  0  0  0  0  0  0  0  0  0  0
   -2.2155   -1.0411   -0.7554 O   0  0  0  0  0  0  0  0  0  0  0  0
   -1.7614   -1.2544   -2.1074 C   0  0  0  0  0  0  0  0  0  0  0  0
   -2.7167   -0.6640   -3.1237 C   0  0  0  0  0  0  0  0  0  0  0  0
    0.6632    0.6936   -3.3466 H   0  0  0  0  0  0  0  0  0  0  0  0
    2.1290    0.6492   -4.3336 H   0  0  0  0  0  0  0  0  0  0  0  0
    1.3617   -0.8657   -3.8245 H   0  0  0  0  0  0  0  0  0  0  0  0
    2.6496    1.1830   -1.9459 H   0  0  0  0  0  0  0  0  0  0  0  0
    3.3936   -0.3606   -2.4428 H   0  0  0  0  0  0  0  0  0  0  0  0
    5.2536   -2.2174    0.6932 H   0  0  0  0  0  0  0  0  0  0  0  0
    4.9439   -0.5391    1.2327 H   0  0  0  0  0  0  0  0  0  0  0  0
    3.3930   -1.3428    2.9647 H   0  0  0  0  0  0  0  0  0  0  0  0
    3.5947   -3.0160    2.4207 H   0  0  0  0  0  0  0  0  0  0  0  0
    4.9574   -2.1476    3.1496 H   0  0  0  0  0  0  0  0  0  0  0  0
    0.2393    0.8411    1.6611 H   0  0  0  0  0  0  0  0  0  0  0  0
    0.1113   -0.1500    3.1551 H   0  0  0  0  0  0  0  0  0  0  0  0
   -5.1563    1.7385    0.9207 H   0  0  0  0  0  0  0  0  0  0  0  0
   -3.5210    2.3934    1.1941 H   0  0  0  0  0  0  0  0  0  0  0  0
   -3.4820    3.2859   -1.1285 H   0  0  0  0  0  0  0  0  0  0  0  0
   -5.0901    2.6098   -1.4260 H   0  0  0  0  0  0  0  0  0  0  0  0
   -4.8828    3.9200   -0.2522 H   0  0  0  0  0  0  0  0  0  0  0  0
   -0.7639   -0.8168   -2.2086 H   0  0  0  0  0  0  0  0  0  0  0  0
   -1.6963   -2.3397   -2.1930 H   0  0  0  0  0  0  0  0  0  0  0  0
   -2.7630    0.4180   -3.0045 H   0  0  0  0  0  0  0  0  0  0  0  0
   -2.3624   -0.8947   -4.1240 H   0  0  0  0  0  0  0  0  0  0  0  0
   -3.7136   -1.0747   -2.9890 H   0  0  0  0  0  0  0  0  0  0  0  0
  1  2  1  0  0  0  0
  2  3  1  0  0  0  0
  3  4  2  0  0  0  0
  4  5  2  0  0  0  0
  4  6  2  0  0  0  0
  6  7  1  0  0  0  0
  7  8  1  0  0  0  0
  4  9  1  0  0  0  0
  9 10  1  0  0  0  0
 10 11  1  0  0  0  0
 11 12  1  0  0  0  0
 12 13  2  0  0  0  0
 12 14  2  0  0  0  0
 14 15  1  0  0  0  0
 15 16  1  0  0  0  0
 12 17  2  0  0  0  0
 17 18  1  0  0  0  0
 18 19  1  0  0  0  0
  1 20  1  0  0  0  0
  1 21  1  0  0  0  0
  1 22  1  0  0  0  0
  2 23  1  0  0  0  0
  2 24  1  0  0  0  0
  7 25  1  0  0  0  0
  7 26  1  0  0  0  0
  8 27  1  0  0  0  0
  8 28  1  0  0  0  0
  8 29  1  0  0  0  0
 10 30  1  0  0  0  0
 10 31  1  0  0  0  0
 15 32  1  0  0  0  0
 15 33  1  0  0  0  0
 16 34  1  0  0  0  0
 16 35  1  0  0  0  0
 16 36  1  0  0  0  0
 18 37  1  0  0  0  0
 18 38  1  0  0  0  0
 19 39  1  0  0  0  0
 19 40  1  0  0  0  0
 19 41  1  0  0  0  0
M  END
