 xtb: 6.7.1 (edcfbbe)
          04092505213D

 41 40  0     0  0            999 V2000
    5.3939   -0.4006   -1.0923 C   0  0  0  0  0  0  0  0  0  0  0  0
    4.4274   -1.1304   -0.1793 C   0  0  0  0  0  0  0  0  0  0  0  0
    3.5814   -0.2082    0.5323 O   0  0  0  0  0  0  0  0  0  0  0  0
    2.1688    0.2785   -0.0174 P   0  0  0  0  0  0  0  0  0  0  0  0
    2.1683    1.1666   -1.7701 S   0  0  0  0  0  0  0  0  0  0  0  0
    1.6835    1.1214    1.2283 O   0  0  0  0  0  0  0  0  0  0  0  0
    1.7980    2.5554    1.2778 C   0  0  0  0  0  0  0  0  0  0  0  0
    3.2449    2.9919    1.3569 C   0  0  0  0  0  0  0  0  0  0  0  0
    1.0132   -1.4813    0.1321 S   0  0  0  0  0  0  0  0  0  0  0  0
    0.0252   -1.3700   -1.4067 C   0  0  0  0  0  0  0  0  0  0  0  0
   -1.7025   -1.8010   -1.1442 S   0  0  0  0  0  0  0  0  0  0  0  0
   -2.3732   -0.0382   -0.1357 P   0  0  0  0  0  0  0  0  0  0  0  0
   -1.1868    1.5164   -0.2168 S   0  0  0  0  0  0  0  0  0  0  0  0
   -2.8278   -0.5642    1.2978 O   0  0  0  0  0  0  0  0  0  0  0  0
   -1.9854   -1.2454    2.2433 C   0  0  0  0  0  0  0  0  0  0  0  0
   -1.1220   -0.2806    3.0310 C   0  0  0  0  0  0  0  0  0  0  0  0
   -3.7510    0.3129   -0.8027 O   0  0  0  0  0  0  0  0  0  0  0  0
   -4.8347   -0.6410   -0.9519 C   0  0  0  0  0  0  0  0  0  0  0  0
   -5.8476   -0.4823    0.1631 C   0  0  0  0  0  0  0  0  0  0  0  0
    4.8496    0.1478   -1.8580 H   0  0  0  0  0  0  0  0  0  0  0  0
    5.9925    0.3012   -0.5183 H   0  0  0  0  0  0  0  0  0  0  0  0
    6.0477   -1.1225   -1.5710 H   0  0  0  0  0  0  0  0  0  0  0  0
    4.9567   -1.6727    0.6066 H   0  0  0  0  0  0  0  0  0  0  0  0
    3.8037   -1.8290   -0.7455 H   0  0  0  0  0  0  0  0  0  0  0  0
    1.3030    2.9734    0.3946 H   0  0  0  0  0  0  0  0  0  0  0  0
    1.2351    2.8329    2.1699 H   0  0  0  0  0  0  0  0  0  0  0  0
    3.7637    2.7059    0.4424 H   0  0  0  0  0  0  0  0  0  0  0  0
    3.2912    4.0706    1.4679 H   0  0  0  0  0  0  0  0  0  0  0  0
    3.7329    2.5148    2.2027 H   0  0  0  0  0  0  0  0  0  0  0  0
    0.4076   -2.0979   -2.1178 H   0  0  0  0  0  0  0  0  0  0  0  0
    0.1084   -0.3525   -1.7970 H   0  0  0  0  0  0  0  0  0  0  0  0
   -2.6903   -1.7645    2.8956 H   0  0  0  0  0  0  0  0  0  0  0  0
   -1.3680   -1.9786    1.7140 H   0  0  0  0  0  0  0  0  0  0  0  0
   -1.7412    0.4751    3.5071 H   0  0  0  0  0  0  0  0  0  0  0  0
   -0.5726   -0.8295    3.7890 H   0  0  0  0  0  0  0  0  0  0  0  0
   -0.4095    0.2183    2.3766 H   0  0  0  0  0  0  0  0  0  0  0  0
   -5.2717   -0.4032   -1.9232 H   0  0  0  0  0  0  0  0  0  0  0  0
   -4.4171   -1.6512   -0.9736 H   0  0  0  0  0  0  0  0  0  0  0  0
   -6.2226    0.5373    0.1816 H   0  0  0  0  0  0  0  0  0  0  0  0
   -6.6735   -1.1654   -0.0089 H   0  0  0  0  0  0  0  0  0  0  0  0
   -5.3910   -0.7035    1.1237 H   0  0  0  0  0  0  0  0  0  0  0  0
  1  2  1  0  0  0  0
  2  3  1  0  0  0  0
  3  4  2  0  0  0  0
  4  5  2  0  0  0  0
  4  6  2  0  0  0  0
  6  7  1  0  0  0  0
  7  8  1  0  0  0  0
  4  9  1  0  0  0  0
  9 10  1  0  0  0  0
 10 11  1  0  0  0  0
 11 12  1  0  0  0  0
 12 13  2  0  0  0  0
 12 14  2  0  0  0  0
 14 15  1  0  0  0  0
 15 16  1  0  0  0  0
 12 17  2  0  0  0  0
 17 18  1  0  0  0  0
 18 19  1  0  0  0  0
  1 20  1  0  0  0  0
  1 21  1  0  0  0  0
  1 22  1  0  0  0  0
  2 23  1  0  0  0  0
  2 24  1  0  0  0  0
  7 25  1  0  0  0  0
  7 26  1  0  0  0  0
  8 27  1  0  0  0  0
  8 28  1  0  0  0  0
  8 29  1  0  0  0  0
 10 30  1  0  0  0  0
 10 31  1  0  0  0  0
 15 32  1  0  0  0  0
 15 33  1  0  0  0  0
 16 34  1  0  0  0  0
 16 35  1  0  0  0  0
 16 36  1  0  0  0  0
 18 37  1  0  0  0  0
 18 38  1  0  0  0  0
 19 39  1  0  0  0  0
 19 40  1  0  0  0  0
 19 41  1  0  0  0  0
M  END
