 xtb: 6.7.1 (edcfbbe)
          04032519553D

 10  9  0     0  0            999 V2000
   -1.2748   -0.2653    0.0001 C   0  0  0  0  0  0  0  0  0  0  0  0
    0.0114    0.5659   -0.0001 C   0  0  0  0  0  0  0  0  0  0  0  0
    1.2415   -0.2129    0.0000 N   0  0  0  0  0  0  0  0  0  0  0  0
   -2.1437    0.3871    0.0000 H   0  0  0  0  0  0  0  0  0  0  0  0
   -1.3178   -0.8996   -0.8837 H   0  0  0  0  0  0  0  0  0  0  0  0
   -1.3178   -0.8993    0.8840 H   0  0  0  0  0  0  0  0  0  0  0  0
    0.0316    1.2090    0.8840 H   0  0  0  0  0  0  0  0  0  0  0  0
    0.0316    1.2087   -0.8843 H   0  0  0  0  0  0  0  0  0  0  0  0
    1.2600   -0.8153    0.8167 H   0  0  0  0  0  0  0  0  0  0  0  0
    1.2600   -0.8155   -0.8165 H   0  0  0  0  0  0  0  0  0  0  0  0
  1  2  1  0  0  0  0
  2  3  1  0  0  0  0
  1  4  1  0  0  0  0
  1  5  1  0  0  0  0
  1  6  1  0  0  0  0
  2  7  1  0  0  0  0
  2  8  1  0  0  0  0
  3  9  1  0  0  0  0
  3 10  1  0  0  0  0
M  END
