15
 xtb: 6.7.1 (edcfbbe)
C           -2.44990500491509       -0.00102568761604        0.00889273909921
C           -0.94727428243247       -0.00292824465376       -0.01082314500248
C           -0.22786851689559       -1.20211018014830       -0.00784134025214
C            1.16569219372993       -1.20160219253773        0.00223203583839
C            1.86596576769429        0.00242103974710        0.00765808541538
C            1.16059591087966        1.20466243612604        0.00215974860983
C           -0.23175156672396        1.19991082775685       -0.00809265506902
H           -2.85284150308032       -0.94641400394101       -0.36387588350109
H           -2.82409567086224        0.13889470236435        1.03024768673556
H           -2.85281705187002        0.81520546610661       -0.59785494303028
H           -0.76706540402405       -2.14582414434378       -0.01540600112805
H            1.70493285866031       -2.14428440085811        0.00189003522254
H            2.95148858725026        0.00467446241470        0.01228073657629
H            1.69663461697556        2.14917755714769        0.00188031543212
H           -0.77493676121034        2.14150790278323       -0.01555934769490
