 xtb: 6.7.1 (edcfbbe)
          04092505203D

 41 40  0     0  0            999 V2000
    3.7152   -0.4261   -2.3649 C   0  0  0  0  0  0  0  0  0  0  0  0
    2.4795    0.4452   -2.4049 C   0  0  0  0  0  0  0  0  0  0  0  0
    2.2051    1.0829   -1.1360 O   0  0  0  0  0  0  0  0  0  0  0  0
    2.0375    0.3807    0.2590 P   0  0  0  0  0  0  0  0  0  0  0  0
    1.0513    1.4686    1.5534 S   0  0  0  0  0  0  0  0  0  0  0  0
    3.5674    0.1778    0.6710 O   0  0  0  0  0  0  0  0  0  0  0  0
    4.0060   -0.0302    2.0206 C   0  0  0  0  0  0  0  0  0  0  0  0
    3.5702   -1.3732    2.5727 C   0  0  0  0  0  0  0  0  0  0  0  0
    1.3069   -1.5900   -0.0999 S   0  0  0  0  0  0  0  0  0  0  0  0
   -0.0150   -1.6924    1.1449 C   0  0  0  0  0  0  0  0  0  0  0  0
   -1.6700   -1.9461    0.4450 S   0  0  0  0  0  0  0  0  0  0  0  0
   -2.1007    0.0185   -0.1862 P   0  0  0  0  0  0  0  0  0  0  0  0
   -0.9306    0.7743   -1.5783 S   0  0  0  0  0  0  0  0  0  0  0  0
   -2.1607    0.7145    1.2332 O   0  0  0  0  0  0  0  0  0  0  0  0
   -2.8575    1.9399    1.5404 C   0  0  0  0  0  0  0  0  0  0  0  0
   -2.3840    3.1061    0.6996 C   0  0  0  0  0  0  0  0  0  0  0  0
   -3.6316   -0.0168   -0.6059 O   0  0  0  0  0  0  0  0  0  0  0  0
   -4.0529   -0.3283   -1.9451 C   0  0  0  0  0  0  0  0  0  0  0  0
   -3.8142   -1.7851   -2.2834 C   0  0  0  0  0  0  0  0  0  0  0  0
    4.5690    0.1502   -2.0181 H   0  0  0  0  0  0  0  0  0  0  0  0
    3.5597   -1.2684   -1.6925 H   0  0  0  0  0  0  0  0  0  0  0  0
    3.9133   -0.8033   -3.3633 H   0  0  0  0  0  0  0  0  0  0  0  0
    1.5931   -0.1270   -2.6930 H   0  0  0  0  0  0  0  0  0  0  0  0
    2.5975    1.2913   -3.0835 H   0  0  0  0  0  0  0  0  0  0  0  0
    5.0926    0.0418    1.9533 H   0  0  0  0  0  0  0  0  0  0  0  0
    3.6189    0.7850    2.6409 H   0  0  0  0  0  0  0  0  0  0  0  0
    3.8401   -2.1704    1.8850 H   0  0  0  0  0  0  0  0  0  0  0  0
    4.0569   -1.5408    3.5281 H   0  0  0  0  0  0  0  0  0  0  0  0
    2.4918   -1.3819    2.7224 H   0  0  0  0  0  0  0  0  0  0  0  0
   -0.0112   -0.7749    1.7399 H   0  0  0  0  0  0  0  0  0  0  0  0
    0.1744   -2.5710    1.7558 H   0  0  0  0  0  0  0  0  0  0  0  0
   -3.9268    1.7636    1.4030 H   0  0  0  0  0  0  0  0  0  0  0  0
   -2.6323    2.0971    2.5966 H   0  0  0  0  0  0  0  0  0  0  0  0
   -2.8745    4.0153    1.0319 H   0  0  0  0  0  0  0  0  0  0  0  0
   -1.3061    3.2234    0.7988 H   0  0  0  0  0  0  0  0  0  0  0  0
   -2.6187    2.9362   -0.3508 H   0  0  0  0  0  0  0  0  0  0  0  0
   -5.1146   -0.0782   -1.9510 H   0  0  0  0  0  0  0  0  0  0  0  0
   -3.5103    0.3224   -2.6388 H   0  0  0  0  0  0  0  0  0  0  0  0
   -4.2426   -2.0042   -3.2561 H   0  0  0  0  0  0  0  0  0  0  0  0
   -2.7441   -1.9869   -2.3141 H   0  0  0  0  0  0  0  0  0  0  0  0
   -4.2684   -2.4269   -1.5329 H   0  0  0  0  0  0  0  0  0  0  0  0
  1  2  1  0  0  0  0
  2  3  1  0  0  0  0
  3  4  2  0  0  0  0
  4  5  2  0  0  0  0
  4  6  2  0  0  0  0
  6  7  1  0  0  0  0
  7  8  1  0  0  0  0
  4  9  1  0  0  0  0
  9 10  1  0  0  0  0
 10 11  1  0  0  0  0
 11 12  1  0  0  0  0
 12 13  2  0  0  0  0
 12 14  2  0  0  0  0
 14 15  1  0  0  0  0
 15 16  1  0  0  0  0
 12 17  2  0  0  0  0
 17 18  1  0  0  0  0
 18 19  1  0  0  0  0
  1 20  1  0  0  0  0
  1 21  1  0  0  0  0
  1 22  1  0  0  0  0
  2 23  1  0  0  0  0
  2 24  1  0  0  0  0
  7 25  1  0  0  0  0
  7 26  1  0  0  0  0
  8 27  1  0  0  0  0
  8 28  1  0  0  0  0
  8 29  1  0  0  0  0
 10 30  1  0  0  0  0
 10 31  1  0  0  0  0
 15 32  1  0  0  0  0
 15 33  1  0  0  0  0
 16 34  1  0  0  0  0
 16 35  1  0  0  0  0
 16 36  1  0  0  0  0
 18 37  1  0  0  0  0
 18 38  1  0  0  0  0
 19 39  1  0  0  0  0
 19 40  1  0  0  0  0
 19 41  1  0  0  0  0
M  END
