 xtb: 6.7.1 (edcfbbe)
          04092507313D

 38 37  0     0  0            999 V2000
    4.0452   -3.3881    0.2987 C   0  0  0  0  0  0  0  0  0  0  0  0
    4.1362   -2.6487   -1.0263 C   0  0  0  0  0  0  0  0  0  0  0  0
    2.8229   -2.2930   -1.5065 O   0  0  0  0  0  0  0  0  0  0  0  0
    2.2973   -1.1521   -1.1191 C   0  0  0  0  0  0  0  0  0  0  0  0
    2.8507   -0.3403   -0.4058 O   0  0  0  0  0  0  0  0  0  0  0  0
    0.8964   -0.9675   -1.6605 C   0  0  0  0  0  0  0  0  0  0  0  0
    0.4417    0.4689   -1.4354 C   0  0  0  0  0  0  0  0  0  0  0  0
    0.8847    1.1655   -2.1475 H   0  0  0  0  0  0  0  0  0  0  0  0
    0.7398    0.9274   -0.0227 C   0  0  0  0  0  0  0  0  0  0  0  0
    0.3786    0.2760    0.9403 O   0  0  0  0  0  0  0  0  0  0  0  0
    1.2809    2.1139    0.0136 O   0  0  0  0  0  0  0  0  0  0  0  0
    1.5777    2.7000    1.2985 C   0  0  0  0  0  0  0  0  0  0  0  0
    3.0084    2.3886    1.7023 C   0  0  0  0  0  0  0  0  0  0  0  0
   -1.3665    0.6212   -1.6320 S   0  0  0  0  0  0  0  0  0  0  0  0
   -2.1786    0.1181    0.2691 P   0  0  0  0  0  0  0  0  0  0  0  0
   -2.1958    1.3986    1.7631 S   0  0  0  0  0  0  0  0  0  0  0  0
   -3.6756   -0.1710   -0.2239 O   0  0  0  0  0  0  0  0  0  0  0  0
   -4.5823    0.8827   -0.5598 C   0  0  0  0  0  0  0  0  0  0  0  0
   -1.7620   -1.3919    0.5321 O   0  0  0  0  0  0  0  0  0  0  0  0
   -1.4089   -1.9016    1.8245 C   0  0  0  0  0  0  0  0  0  0  0  0
    3.6220   -2.7387    1.0622 H   0  0  0  0  0  0  0  0  0  0  0  0
    3.4164   -4.2679    0.1948 H   0  0  0  0  0  0  0  0  0  0  0  0
    5.0393   -3.6925    0.6089 H   0  0  0  0  0  0  0  0  0  0  0  0
    4.5481   -3.2848   -1.8094 H   0  0  0  0  0  0  0  0  0  0  0  0
    4.7285   -1.7354   -0.9225 H   0  0  0  0  0  0  0  0  0  0  0  0
    0.2458   -1.6579   -1.1152 H   0  0  0  0  0  0  0  0  0  0  0  0
    0.8585   -1.2340   -2.7157 H   0  0  0  0  0  0  0  0  0  0  0  0
    1.4235    3.7695    1.1525 H   0  0  0  0  0  0  0  0  0  0  0  0
    0.8626    2.3127    2.0306 H   0  0  0  0  0  0  0  0  0  0  0  0
    3.2092    2.8209    2.6766 H   0  0  0  0  0  0  0  0  0  0  0  0
    3.1524    1.3116    1.7483 H   0  0  0  0  0  0  0  0  0  0  0  0
    3.6997    2.7982    0.9716 H   0  0  0  0  0  0  0  0  0  0  0  0
   -4.3368    1.2854   -1.5423 H   0  0  0  0  0  0  0  0  0  0  0  0
   -4.5319    1.6736    0.1914 H   0  0  0  0  0  0  0  0  0  0  0  0
   -5.5700    0.4287   -0.5670 H   0  0  0  0  0  0  0  0  0  0  0  0
   -1.8637   -1.3016    2.6133 H   0  0  0  0  0  0  0  0  0  0  0  0
   -0.3251   -1.8714    1.9332 H   0  0  0  0  0  0  0  0  0  0  0  0
   -1.7815   -2.9223    1.8551 H   0  0  0  0  0  0  0  0  0  0  0  0
  1  2  1  0  0  0  0
  2  3  1  0  0  0  0
  3  4  4  0  0  0  0
  4  5  2  0  0  0  0
  4  6  1  0  0  0  0
  6  7  1  0  0  0  0
  7  8  1  0  0  0  0
  7  9  1  0  0  0  0
  9 10  2  0  0  0  0
  9 11  4  0  0  0  0
 11 12  1  0  0  0  0
 12 13  1  0  0  0  0
  7 14  1  0  0  0  0
 14 15  1  0  0  0  0
 15 16  2  0  0  0  0
 15 17  1  0  0  0  0
 17 18  1  0  0  0  0
 15 19  2  0  0  0  0
 19 20  1  0  0  0  0
  1 21  1  0  0  0  0
  1 22  1  0  0  0  0
  1 23  1  0  0  0  0
  2 24  1  0  0  0  0
  2 25  1  0  0  0  0
  6 26  1  0  0  0  0
  6 27  1  0  0  0  0
 12 28  1  0  0  0  0
 12 29  1  0  0  0  0
 13 30  1  0  0  0  0
 13 31  1  0  0  0  0
 13 32  1  0  0  0  0
 18 33  1  0  0  0  0
 18 34  1  0  0  0  0
 18 35  1  0  0  0  0
 20 36  1  0  0  0  0
 20 37  1  0  0  0  0
 20 38  1  0  0  0  0
M  END
