 xtb: 6.7.1 (edcfbbe)
          04092505203D

 41 40  0     0  0            999 V2000
    3.4105    0.1555   -2.6921 C   0  0  0  0  0  0  0  0  0  0  0  0
    1.9752    0.4673   -2.3269 C   0  0  0  0  0  0  0  0  0  0  0  0
    1.4692   -0.4141   -1.3077 O   0  0  0  0  0  0  0  0  0  0  0  0
    2.0352   -0.4242    0.1721 P   0  0  0  0  0  0  0  0  0  0  0  0
    2.5886    1.2836    0.9673 S   0  0  0  0  0  0  0  0  0  0  0  0
    3.2054   -1.4947    0.0387 O   0  0  0  0  0  0  0  0  0  0  0  0
    4.2398   -1.6403    1.0264 C   0  0  0  0  0  0  0  0  0  0  0  0
    3.7134   -2.2017    2.3317 C   0  0  0  0  0  0  0  0  0  0  0  0
    0.5215   -1.5140    1.1400 S   0  0  0  0  0  0  0  0  0  0  0  0
   -0.4000   -0.1735    1.9772 C   0  0  0  0  0  0  0  0  0  0  0  0
   -2.1430   -0.1519    1.5233 S   0  0  0  0  0  0  0  0  0  0  0  0
   -1.9153    0.6255   -0.4430 P   0  0  0  0  0  0  0  0  0  0  0  0
   -0.5923    2.0598   -0.6375 S   0  0  0  0  0  0  0  0  0  0  0  0
   -3.3979    0.9732   -0.8851 O   0  0  0  0  0  0  0  0  0  0  0  0
   -4.3564    1.7017   -0.0956 C   0  0  0  0  0  0  0  0  0  0  0  0
   -3.8474    3.0571    0.3480 C   0  0  0  0  0  0  0  0  0  0  0  0
   -1.5359   -0.5561   -1.4124 O   0  0  0  0  0  0  0  0  0  0  0  0
   -2.0363   -1.9178   -1.3862 C   0  0  0  0  0  0  0  0  0  0  0  0
   -3.5461   -2.0108   -1.3480 C   0  0  0  0  0  0  0  0  0  0  0  0
    4.0642    0.3797   -1.8499 H   0  0  0  0  0  0  0  0  0  0  0  0
    3.5119   -0.8958   -2.9489 H   0  0  0  0  0  0  0  0  0  0  0  0
    3.7041    0.7681   -3.5387 H   0  0  0  0  0  0  0  0  0  0  0  0
    1.2941    0.3093   -3.1649 H   0  0  0  0  0  0  0  0  0  0  0  0
    1.8742    1.4987   -1.9716 H   0  0  0  0  0  0  0  0  0  0  0  0
    4.9557   -2.3156    0.5563 H   0  0  0  0  0  0  0  0  0  0  0  0
    4.7004   -0.6606    1.1899 H   0  0  0  0  0  0  0  0  0  0  0  0
    3.0598   -1.4745    2.8116 H   0  0  0  0  0  0  0  0  0  0  0  0
    3.1523   -3.1153    2.1520 H   0  0  0  0  0  0  0  0  0  0  0  0
    4.5479   -2.4132    2.9924 H   0  0  0  0  0  0  0  0  0  0  0  0
    0.0655    0.7831    1.7230 H   0  0  0  0  0  0  0  0  0  0  0  0
   -0.3665   -0.3577    3.0477 H   0  0  0  0  0  0  0  0  0  0  0  0
   -5.2153    1.7983   -0.7619 H   0  0  0  0  0  0  0  0  0  0  0  0
   -4.6221    1.0880    0.7695 H   0  0  0  0  0  0  0  0  0  0  0  0
   -4.6391    3.5877    0.8670 H   0  0  0  0  0  0  0  0  0  0  0  0
   -2.9987    2.9403    1.0205 H   0  0  0  0  0  0  0  0  0  0  0  0
   -3.5237    3.6413   -0.5102 H   0  0  0  0  0  0  0  0  0  0  0  0
   -1.6303   -2.3431   -2.3054 H   0  0  0  0  0  0  0  0  0  0  0  0
   -1.5905   -2.4221   -0.5237 H   0  0  0  0  0  0  0  0  0  0  0  0
   -3.9813   -1.4250   -2.1534 H   0  0  0  0  0  0  0  0  0  0  0  0
   -3.8320   -3.0516   -1.4662 H   0  0  0  0  0  0  0  0  0  0  0  0
   -3.9279   -1.6475   -0.3963 H   0  0  0  0  0  0  0  0  0  0  0  0
  1  2  1  0  0  0  0
  2  3  1  0  0  0  0
  3  4  2  0  0  0  0
  4  5  2  0  0  0  0
  4  6  2  0  0  0  0
  6  7  1  0  0  0  0
  7  8  1  0  0  0  0
  4  9  1  0  0  0  0
  9 10  1  0  0  0  0
 10 11  1  0  0  0  0
 11 12  1  0  0  0  0
 12 13  2  0  0  0  0
 12 14  2  0  0  0  0
 14 15  1  0  0  0  0
 15 16  1  0  0  0  0
 12 17  2  0  0  0  0
 17 18  1  0  0  0  0
 18 19  1  0  0  0  0
  1 20  1  0  0  0  0
  1 21  1  0  0  0  0
  1 22  1  0  0  0  0
  2 23  1  0  0  0  0
  2 24  1  0  0  0  0
  7 25  1  0  0  0  0
  7 26  1  0  0  0  0
  8 27  1  0  0  0  0
  8 28  1  0  0  0  0
  8 29  1  0  0  0  0
 10 30  1  0  0  0  0
 10 31  1  0  0  0  0
 15 32  1  0  0  0  0
 15 33  1  0  0  0  0
 16 34  1  0  0  0  0
 16 35  1  0  0  0  0
 16 36  1  0  0  0  0
 18 37  1  0  0  0  0
 18 38  1  0  0  0  0
 19 39  1  0  0  0  0
 19 40  1  0  0  0  0
 19 41  1  0  0  0  0
M  END
