  22
 
 C          1.2394384565       -0.0043375656       -1.6104980269
 C          2.6138433373       -0.0048924854       -1.7633536687
 C          3.4344601462       -0.0032202578       -0.6461621536
 C          2.8740838250       -0.0011549969        0.6265667518
 C          1.4977786807       -0.0005505203        0.7808966383
 C          0.6778084043       -0.0020704013       -0.3395507332
 C         -0.7954867279       -0.0007749301       -0.1717644755
 C         -1.4954463976        1.2008493945       -0.0936625374
 C         -2.8800712200        1.2001242917        0.0593602062
 C         -3.5732981321        0.0021820750        0.1355195861
 C         -2.8825114344       -1.1972234768        0.0602302866
 C         -1.4978831532       -1.2008929647       -0.0928363882
 Cl        -0.6308150572       -2.6878285534       -0.1841128782
 Cl        -3.7425202493       -2.6843165773        0.1574341186
 Cl        -3.7370423577        2.6890455240        0.1554393429
 Cl        -0.6253545598        2.6859416853       -0.1860508243
 Cl         3.8913168898        0.0007188310        2.0284149845
 Cl         5.1556025153       -0.0037188989       -0.8380419748
 H          0.6005410476       -0.0055084670       -2.4784621426
 H          3.0582671758       -0.0064841161       -2.7447746362
 H          1.0713672532        0.0011346911        1.7706767661
 H         -4.6442007772        0.0033255743        0.2533969797
          22
        -55.06736515
 C          1.2210208226       -0.8871108132        1.3688309671
 C          2.5928572971       -0.9975829275        1.4992514703
 C          3.4273101800       -0.4299701634        0.5487256100
 C          2.8815930477        0.2514676841       -0.5338357811
 C          1.5081981547        0.3669877015       -0.6627275523
 C          0.6718032756       -0.2033835536        0.2894677987
 C         -0.7948929698       -0.0743390665        0.1489880387
 C         -1.4069715732        1.1779560146        0.2120273168
 C         -2.7887448600        1.2961518896        0.0822855648
 C         -3.5727905864        0.1706748443       -0.1143970009
 C         -2.9733111463       -1.0768856104       -0.1803843403
 C         -1.5923380212       -1.2021404487       -0.0480409166
 Cl        -0.8566176064       -2.7559705542       -0.1638508757
 Cl        -3.9455597827       -2.4748223510       -0.4307954562
 Cl        -3.5329220434        2.8460466722        0.1669517643
 Cl        -0.4464944639        2.5843569363        0.4828597911
 Cl         3.9147777891        0.9630247504       -1.7286190601
 Cl         5.1451951180       -0.5698015117        0.7117453129
 H          0.5746795361       -1.3234277548        2.1126249679
 H          3.0249583716       -1.5219903304        2.3352053942
 H          1.0958658126        0.8915568684       -1.5090111060
 H         -4.6410197303        0.2652428644       -0.2158843500
