19
 xtb: 6.7.1 (edcfbbe)
C           -2.50410643295614       -0.78047214378731       -0.00248172292561
C           -1.22843272910243        0.00879861696315       -0.02249552701282
C           -1.22369067747386        1.40218978553411       -0.09561987643338
C           -0.02959545438577        2.11881760468322       -0.11280309123340
C            1.18252993667537        1.43755478858377       -0.05545099385399
C            1.22612427530637        0.04331590990558        0.01832413605108
C            0.00747968355420       -0.64907191584204        0.03378590378562
O           -0.03689990005969       -2.02754125338911        0.10695868284436
C            2.52966665897977       -0.70031134321147        0.07949480623942
H           -3.36708540429699       -0.11427922677703       -0.07625781503944
H           -2.54583564479621       -1.49385705074645       -0.83347893103543
H           -2.59802837611342       -1.36457919307354        0.92053711944037
H           -2.17477617174037        1.92577727857108       -0.14073317445005
H           -0.04386305863593        3.20249897363027       -0.16993555022757
H            2.11910971472507        1.98836112410794       -0.06810238175347
H            0.86325183757528       -2.37897183728333        0.13661821403830
H            2.61260231292496       -1.30129108389300        0.99407104021120
H            2.64926700197149       -1.38214866848920       -0.77223355683812
H            3.36760963947074       -0.00029375289644        0.06464263303592
