 xtb: 6.7.1 (edcfbbe)
          04092514003D

 41 40  0     0  0            999 V2000
    1.0684    2.1700    1.8515 C   0  0  0  0  0  0  0  0  0  0  0  0
    2.4563    1.6166    2.1006 C   0  0  0  0  0  0  0  0  0  0  0  0
    3.0192    1.0298    0.9173 O   0  0  0  0  0  0  0  0  0  0  0  0
    2.5533   -0.3810    0.3381 P   0  0  0  0  0  0  0  0  0  0  0  0
    2.1598   -1.7229    1.7187 S   0  0  0  0  0  0  0  0  0  0  0  0
    3.7622   -0.7022   -0.6368 O   0  0  0  0  0  0  0  0  0  0  0  0
    5.0875   -0.9768   -0.1175 C   0  0  0  0  0  0  0  0  0  0  0  0
    5.4011   -2.4573   -0.2065 C   0  0  0  0  0  0  0  0  0  0  0  0
    1.0738    0.0340   -1.1124 S   0  0  0  0  0  0  0  0  0  0  0  0
   -0.0924   -1.3183   -0.7641 C   0  0  0  0  0  0  0  0  0  0  0  0
   -1.2237   -0.9948    0.6201 S   0  0  0  0  0  0  0  0  0  0  0  0
   -2.5216    0.3330   -0.3788 P   0  0  0  0  0  0  0  0  0  0  0  0
   -2.9017   -0.0082   -2.2757 S   0  0  0  0  0  0  0  0  0  0  0  0
   -1.8062    1.7023   -0.0292 O   0  0  0  0  0  0  0  0  0  0  0  0
   -2.1731    2.9451   -0.6729 C   0  0  0  0  0  0  0  0  0  0  0  0
   -1.1375    3.3168   -1.7154 C   0  0  0  0  0  0  0  0  0  0  0  0
   -3.8173    0.4201    0.5426 O   0  0  0  0  0  0  0  0  0  0  0  0
   -5.0027   -0.3658    0.3261 C   0  0  0  0  0  0  0  0  0  0  0  0
   -4.8000   -1.8254    0.6779 C   0  0  0  0  0  0  0  0  0  0  0  0
    0.7276    2.6995    2.7354 H   0  0  0  0  0  0  0  0  0  0  0  0
    1.0816    2.8523    1.0053 H   0  0  0  0  0  0  0  0  0  0  0  0
    0.3700    1.3618    1.6377 H   0  0  0  0  0  0  0  0  0  0  0  0
    2.4353    0.8579    2.8900 H   0  0  0  0  0  0  0  0  0  0  0  0
    3.1608    2.4077    2.3629 H   0  0  0  0  0  0  0  0  0  0  0  0
    5.7627   -0.3891   -0.7418 H   0  0  0  0  0  0  0  0  0  0  0  0
    5.1507   -0.6256    0.9161 H   0  0  0  0  0  0  0  0  0  0  0  0
    4.7193   -3.0262    0.4219 H   0  0  0  0  0  0  0  0  0  0  0  0
    5.3030   -2.7993   -1.2327 H   0  0  0  0  0  0  0  0  0  0  0  0
    6.4188   -2.6260    0.1323 H   0  0  0  0  0  0  0  0  0  0  0  0
    0.4574   -2.2193   -0.5014 H   0  0  0  0  0  0  0  0  0  0  0  0
   -0.6756   -1.4559   -1.6748 H   0  0  0  0  0  0  0  0  0  0  0  0
   -3.1633    2.8424   -1.1260 H   0  0  0  0  0  0  0  0  0  0  0  0
   -2.2152    3.6799    0.1327 H   0  0  0  0  0  0  0  0  0  0  0  0
   -0.1507    3.3622   -1.2636 H   0  0  0  0  0  0  0  0  0  0  0  0
   -1.1187    2.5718   -2.5079 H   0  0  0  0  0  0  0  0  0  0  0  0
   -1.3854    4.2842   -2.1403 H   0  0  0  0  0  0  0  0  0  0  0  0
   -5.7470    0.1020    0.9724 H   0  0  0  0  0  0  0  0  0  0  0  0
   -5.3008   -0.2616   -0.7222 H   0  0  0  0  0  0  0  0  0  0  0  0
   -4.4202   -1.9235    1.6915 H   0  0  0  0  0  0  0  0  0  0  0  0
   -5.7497   -2.3456    0.5974 H   0  0  0  0  0  0  0  0  0  0  0  0
   -4.0885   -2.2811   -0.0093 H   0  0  0  0  0  0  0  0  0  0  0  0
  1  2  1  0  0  0  0
  2  3  1  0  0  0  0
  3  4  2  0  0  0  0
  4  5  2  0  0  0  0
  4  6  2  0  0  0  0
  6  7  1  0  0  0  0
  7  8  1  0  0  0  0
  4  9  1  0  0  0  0
  9 10  1  0  0  0  0
 10 11  1  0  0  0  0
 11 12  1  0  0  0  0
 12 13  2  0  0  0  0
 12 14  2  0  0  0  0
 14 15  1  0  0  0  0
 15 16  1  0  0  0  0
 12 17  2  0  0  0  0
 17 18  1  0  0  0  0
 18 19  1  0  0  0  0
  1 20  1  0  0  0  0
  1 21  1  0  0  0  0
  1 22  1  0  0  0  0
  2 23  1  0  0  0  0
  2 24  1  0  0  0  0
  7 25  1  0  0  0  0
  7 26  1  0  0  0  0
  8 27  1  0  0  0  0
  8 28  1  0  0  0  0
  8 29  1  0  0  0  0
 10 30  1  0  0  0  0
 10 31  1  0  0  0  0
 15 32  1  0  0  0  0
 15 33  1  0  0  0  0
 16 34  1  0  0  0  0
 16 35  1  0  0  0  0
 16 36  1  0  0  0  0
 18 37  1  0  0  0  0
 18 38  1  0  0  0  0
 19 39  1  0  0  0  0
 19 40  1  0  0  0  0
 19 41  1  0  0  0  0
M  END
