 xtb: 6.7.1 (edcfbbe)
          04092514013D

 41 40  0     0  0            999 V2000
    6.0729   -0.2780   -0.3412 C   0  0  0  0  0  0  0  0  0  0  0  0
    4.6726   -0.6500   -0.7889 C   0  0  0  0  0  0  0  0  0  0  0  0
    3.7384    0.2015   -0.0911 O   0  0  0  0  0  0  0  0  0  0  0  0
    2.2555    0.4536   -0.6117 P   0  0  0  0  0  0  0  0  0  0  0  0
    2.0799    0.9904   -2.4815 S   0  0  0  0  0  0  0  0  0  0  0  0
    1.7564    1.5472    0.4027 O   0  0  0  0  0  0  0  0  0  0  0  0
    1.8974    1.3838    1.8383 C   0  0  0  0  0  0  0  0  0  0  0  0
    1.0050    2.4071    2.5068 C   0  0  0  0  0  0  0  0  0  0  0  0
    1.2828   -1.3679   -0.0864 S   0  0  0  0  0  0  0  0  0  0  0  0
   -0.0127   -1.4446   -1.3721 C   0  0  0  0  0  0  0  0  0  0  0  0
   -1.6195   -1.8854   -0.6869 S   0  0  0  0  0  0  0  0  0  0  0  0
   -2.1260    0.0059    0.1547 P   0  0  0  0  0  0  0  0  0  0  0  0
   -1.6108    1.5547   -0.9337 S   0  0  0  0  0  0  0  0  0  0  0  0
   -1.4846    0.0865    1.5882 O   0  0  0  0  0  0  0  0  0  0  0  0
   -1.3231   -0.9965    2.5412 C   0  0  0  0  0  0  0  0  0  0  0  0
   -2.6354   -1.6144    2.9698 C   0  0  0  0  0  0  0  0  0  0  0  0
   -3.6773   -0.1363    0.4576 O   0  0  0  0  0  0  0  0  0  0  0  0
   -4.6801   -0.0698   -0.5767 C   0  0  0  0  0  0  0  0  0  0  0  0
   -5.9850    0.3684    0.0600 C   0  0  0  0  0  0  0  0  0  0  0  0
    6.7878   -0.9222   -0.8431 H   0  0  0  0  0  0  0  0  0  0  0  0
    6.2862    0.7567   -0.5949 H   0  0  0  0  0  0  0  0  0  0  0  0
    6.1689   -0.4049    0.7332 H   0  0  0  0  0  0  0  0  0  0  0  0
    4.4374   -1.6872   -0.5365 H   0  0  0  0  0  0  0  0  0  0  0  0
    4.5439   -0.5007   -1.8656 H   0  0  0  0  0  0  0  0  0  0  0  0
    1.6061    0.3612    2.0981 H   0  0  0  0  0  0  0  0  0  0  0  0
    2.9485    1.5354    2.0900 H   0  0  0  0  0  0  0  0  0  0  0  0
   -0.0301    2.2471    2.2139 H   0  0  0  0  0  0  0  0  0  0  0  0
    1.0971    2.3131    3.5839 H   0  0  0  0  0  0  0  0  0  0  0  0
    1.2980    3.4085    2.2040 H   0  0  0  0  0  0  0  0  0  0  0  0
    0.2494   -2.2279   -2.0788 H   0  0  0  0  0  0  0  0  0  0  0  0
   -0.0713   -0.4711   -1.8671 H   0  0  0  0  0  0  0  0  0  0  0  0
   -0.6646   -1.7472    2.0945 H   0  0  0  0  0  0  0  0  0  0  0  0
   -0.8182   -0.5110    3.3779 H   0  0  0  0  0  0  0  0  0  0  0  0
   -3.3121   -0.8487    3.3394 H   0  0  0  0  0  0  0  0  0  0  0  0
   -3.1052   -2.1296    2.1353 H   0  0  0  0  0  0  0  0  0  0  0  0
   -2.4383   -2.3310    3.7617 H   0  0  0  0  0  0  0  0  0  0  0  0
   -4.3514    0.6421   -1.3413 H   0  0  0  0  0  0  0  0  0  0  0  0
   -4.7704   -1.0624   -1.0255 H   0  0  0  0  0  0  0  0  0  0  0  0
   -6.7510    0.4321   -0.7063 H   0  0  0  0  0  0  0  0  0  0  0  0
   -6.2926   -0.3480    0.8159 H   0  0  0  0  0  0  0  0  0  0  0  0
   -5.8646    1.3428    0.5252 H   0  0  0  0  0  0  0  0  0  0  0  0
  1  2  1  0  0  0  0
  2  3  1  0  0  0  0
  3  4  2  0  0  0  0
  4  5  2  0  0  0  0
  4  6  2  0  0  0  0
  6  7  1  0  0  0  0
  7  8  1  0  0  0  0
  4  9  1  0  0  0  0
  9 10  1  0  0  0  0
 10 11  1  0  0  0  0
 11 12  1  0  0  0  0
 12 13  2  0  0  0  0
 12 14  2  0  0  0  0
 14 15  1  0  0  0  0
 15 16  1  0  0  0  0
 12 17  2  0  0  0  0
 17 18  1  0  0  0  0
 18 19  1  0  0  0  0
  1 20  1  0  0  0  0
  1 21  1  0  0  0  0
  1 22  1  0  0  0  0
  2 23  1  0  0  0  0
  2 24  1  0  0  0  0
  7 25  1  0  0  0  0
  7 26  1  0  0  0  0
  8 27  1  0  0  0  0
  8 28  1  0  0  0  0
  8 29  1  0  0  0  0
 10 30  1  0  0  0  0
 10 31  1  0  0  0  0
 15 32  1  0  0  0  0
 15 33  1  0  0  0  0
 16 34  1  0  0  0  0
 16 35  1  0  0  0  0
 16 36  1  0  0  0  0
 18 37  1  0  0  0  0
 18 38  1  0  0  0  0
 19 39  1  0  0  0  0
 19 40  1  0  0  0  0
 19 41  1  0  0  0  0
M  END
