 xtb: 6.7.1 (edcfbbe)
          04092505213D

 41 40  0     0  0            999 V2000
    3.0157    0.0609   -2.2580 C   0  0  0  0  0  0  0  0  0  0  0  0
    2.1163    1.0557   -1.5598 C   0  0  0  0  0  0  0  0  0  0  0  0
    2.2926    1.0821   -0.1227 O   0  0  0  0  0  0  0  0  0  0  0  0
    2.3040   -0.1277    0.8814 P   0  0  0  0  0  0  0  0  0  0  0  0
    2.1799    0.4871    2.7336 S   0  0  0  0  0  0  0  0  0  0  0  0
    3.6518   -0.8865    0.5262 O   0  0  0  0  0  0  0  0  0  0  0  0
    4.1370   -1.9690    1.3462 C   0  0  0  0  0  0  0  0  0  0  0  0
    5.6293   -2.0966    1.1162 C   0  0  0  0  0  0  0  0  0  0  0  0
    0.7919   -1.5117    0.2840 S   0  0  0  0  0  0  0  0  0  0  0  0
   -0.5128   -0.8750    1.3646 C   0  0  0  0  0  0  0  0  0  0  0  0
   -1.0621    0.7977    0.9288 S   0  0  0  0  0  0  0  0  0  0  0  0
   -2.1811    0.3374   -0.8103 P   0  0  0  0  0  0  0  0  0  0  0  0
   -1.2934   -0.2858   -2.4337 S   0  0  0  0  0  0  0  0  0  0  0  0
   -2.9726    1.6760   -1.1109 O   0  0  0  0  0  0  0  0  0  0  0  0
   -3.7836    2.3659   -0.1287 C   0  0  0  0  0  0  0  0  0  0  0  0
   -3.0630    3.5980    0.3801 C   0  0  0  0  0  0  0  0  0  0  0  0
   -3.2055   -0.7043   -0.1538 O   0  0  0  0  0  0  0  0  0  0  0  0
   -3.9082   -1.6724   -0.9577 C   0  0  0  0  0  0  0  0  0  0  0  0
   -4.9862   -1.0172   -1.7965 C   0  0  0  0  0  0  0  0  0  0  0  0
    2.8950    0.1773   -3.3308 H   0  0  0  0  0  0  0  0  0  0  0  0
    4.0538    0.2331   -1.9863 H   0  0  0  0  0  0  0  0  0  0  0  0
    2.7379   -0.9555   -1.9853 H   0  0  0  0  0  0  0  0  0  0  0  0
    1.0653    0.8390   -1.7742 H   0  0  0  0  0  0  0  0  0  0  0  0
    2.3420    2.0817   -1.8539 H   0  0  0  0  0  0  0  0  0  0  0  0
    3.9122   -1.7424    2.3940 H   0  0  0  0  0  0  0  0  0  0  0  0
    3.6070   -2.8790    1.0531 H   0  0  0  0  0  0  0  0  0  0  0  0
    5.8289   -2.2961    0.0675 H   0  0  0  0  0  0  0  0  0  0  0  0
    6.1297   -1.1755    1.4017 H   0  0  0  0  0  0  0  0  0  0  0  0
    6.0132   -2.9139    1.7178 H   0  0  0  0  0  0  0  0  0  0  0  0
   -0.1257   -0.7982    2.3816 H   0  0  0  0  0  0  0  0  0  0  0  0
   -1.3486   -1.5666    1.3060 H   0  0  0  0  0  0  0  0  0  0  0  0
   -4.6951    2.6366   -0.6645 H   0  0  0  0  0  0  0  0  0  0  0  0
   -4.0215    1.6791    0.6871 H   0  0  0  0  0  0  0  0  0  0  0  0
   -3.7164    4.1394    1.0569 H   0  0  0  0  0  0  0  0  0  0  0  0
   -2.1555    3.3173    0.9115 H   0  0  0  0  0  0  0  0  0  0  0  0
   -2.7944    4.2419   -0.4528 H   0  0  0  0  0  0  0  0  0  0  0  0
   -3.1834   -2.1872   -1.5963 H   0  0  0  0  0  0  0  0  0  0  0  0
   -4.3267   -2.3696   -0.2305 H   0  0  0  0  0  0  0  0  0  0  0  0
   -4.5311   -0.3186   -2.4983 H   0  0  0  0  0  0  0  0  0  0  0  0
   -5.5204   -1.7792   -2.3552 H   0  0  0  0  0  0  0  0  0  0  0  0
   -5.6859   -0.4782   -1.1629 H   0  0  0  0  0  0  0  0  0  0  0  0
  1  2  1  0  0  0  0
  2  3  1  0  0  0  0
  3  4  2  0  0  0  0
  4  5  2  0  0  0  0
  4  6  2  0  0  0  0
  6  7  1  0  0  0  0
  7  8  1  0  0  0  0
  4  9  1  0  0  0  0
  9 10  1  0  0  0  0
 10 11  1  0  0  0  0
 11 12  1  0  0  0  0
 12 13  2  0  0  0  0
 12 14  2  0  0  0  0
 14 15  1  0  0  0  0
 15 16  1  0  0  0  0
 12 17  1  0  0  0  0
 17 18  1  0  0  0  0
 18 19  1  0  0  0  0
  1 20  1  0  0  0  0
  1 21  1  0  0  0  0
  1 22  1  0  0  0  0
  2 23  1  0  0  0  0
  2 24  1  0  0  0  0
  7 25  1  0  0  0  0
  7 26  1  0  0  0  0
  8 27  1  0  0  0  0
  8 28  1  0  0  0  0
  8 29  1  0  0  0  0
 10 30  1  0  0  0  0
 10 31  1  0  0  0  0
 15 32  1  0  0  0  0
 15 33  1  0  0  0  0
 16 34  1  0  0  0  0
 16 35  1  0  0  0  0
 16 36  1  0  0  0  0
 18 37  1  0  0  0  0
 18 38  1  0  0  0  0
 19 39  1  0  0  0  0
 19 40  1  0  0  0  0
 19 41  1  0  0  0  0
M  END
