 xtb: 6.7.1 (edcfbbe)
          04092509473D

 38 37  0     0  0            999 V2000
    2.3051   -2.7636    0.6553 C   0  0  0  0  0  0  0  0  0  0  0  0
    3.3071   -1.8933   -0.0866 C   0  0  0  0  0  0  0  0  0  0  0  0
    2.6587   -0.7259   -0.6291 O   0  0  0  0  0  0  0  0  0  0  0  0
    2.0597   -0.8403   -1.8041 C   0  0  0  0  0  0  0  0  0  0  0  0
    2.0933   -1.8329   -2.4933 O   0  0  0  0  0  0  0  0  0  0  0  0
    1.3227    0.4319   -2.1824 C   0  0  0  0  0  0  0  0  0  0  0  0
    0.2528    0.7515   -1.1398 C   0  0  0  0  0  0  0  0  0  0  0  0
   -0.3406    1.6155   -1.4562 H   0  0  0  0  0  0  0  0  0  0  0  0
    0.8457    1.0793    0.2235 C   0  0  0  0  0  0  0  0  0  0  0  0
    0.5071    0.5229    1.2456 O   0  0  0  0  0  0  0  0  0  0  0  0
    1.7026    2.0634    0.1275 O   0  0  0  0  0  0  0  0  0  0  0  0
    2.3597    2.5525    1.3160 C   0  0  0  0  0  0  0  0  0  0  0  0
    3.6000    1.7334    1.6321 C   0  0  0  0  0  0  0  0  0  0  0  0
   -0.8741   -0.6804   -0.9815 S   0  0  0  0  0  0  0  0  0  0  0  0
   -2.2244    0.0905    0.4611 P   0  0  0  0  0  0  0  0  0  0  0  0
   -2.3691    2.0367    0.5726 S   0  0  0  0  0  0  0  0  0  0  0  0
   -3.5866   -0.6491    0.0385 O   0  0  0  0  0  0  0  0  0  0  0  0
   -4.3216   -0.3067   -1.1410 C   0  0  0  0  0  0  0  0  0  0  0  0
   -1.9780   -0.6114    1.8527 O   0  0  0  0  0  0  0  0  0  0  0  0
   -1.8177   -2.0373    1.9712 C   0  0  0  0  0  0  0  0  0  0  0  0
    2.8224   -3.5925    1.1266 H   0  0  0  0  0  0  0  0  0  0  0  0
    1.7950   -2.1765    1.4164 H   0  0  0  0  0  0  0  0  0  0  0  0
    1.5668   -3.1552   -0.0417 H   0  0  0  0  0  0  0  0  0  0  0  0
    3.7703   -2.4473   -0.9080 H   0  0  0  0  0  0  0  0  0  0  0  0
    4.0710   -1.5006    0.5849 H   0  0  0  0  0  0  0  0  0  0  0  0
    0.8593    0.2770   -3.1560 H   0  0  0  0  0  0  0  0  0  0  0  0
    2.0277    1.2627   -2.2259 H   0  0  0  0  0  0  0  0  0  0  0  0
    2.6170    3.5831    1.0688 H   0  0  0  0  0  0  0  0  0  0  0  0
    1.6482    2.5289    2.1461 H   0  0  0  0  0  0  0  0  0  0  0  0
    3.3192    0.7165    1.8937 H   0  0  0  0  0  0  0  0  0  0  0  0
    4.2607    1.7081    0.7699 H   0  0  0  0  0  0  0  0  0  0  0  0
    4.1213    2.1845    2.4702 H   0  0  0  0  0  0  0  0  0  0  0  0
   -5.2501   -0.8696   -1.0784 H   0  0  0  0  0  0  0  0  0  0  0  0
   -3.7608   -0.5941   -2.0303 H   0  0  0  0  0  0  0  0  0  0  0  0
   -4.5265    0.7645   -1.1577 H   0  0  0  0  0  0  0  0  0  0  0  0
   -2.7680   -2.5331    1.7816 H   0  0  0  0  0  0  0  0  0  0  0  0
   -1.4858   -2.2031    2.9925 H   0  0  0  0  0  0  0  0  0  0  0  0
   -1.0656   -2.3871    1.2630 H   0  0  0  0  0  0  0  0  0  0  0  0
  1  2  1  0  0  0  0
  2  3  1  0  0  0  0
  3  4  1  0  0  0  0
  4  5  2  0  0  0  0
  4  6  1  0  0  0  0
  6  7  1  0  0  0  0
  7  8  1  0  0  0  0
  7  9  1  0  0  0  0
  9 10  2  0  0  0  0
  9 11  4  0  0  0  0
 11 12  1  0  0  0  0
 12 13  1  0  0  0  0
  7 14  1  0  0  0  0
 14 15  1  0  0  0  0
 15 16  2  0  0  0  0
 15 17  1  0  0  0  0
 17 18  1  0  0  0  0
 15 19  2  0  0  0  0
 19 20  1  0  0  0  0
  1 21  1  0  0  0  0
  1 22  1  0  0  0  0
  1 23  1  0  0  0  0
  2 24  1  0  0  0  0
  2 25  1  0  0  0  0
  6 26  1  0  0  0  0
  6 27  1  0  0  0  0
 12 28  1  0  0  0  0
 12 29  1  0  0  0  0
 13 30  1  0  0  0  0
 13 31  1  0  0  0  0
 13 32  1  0  0  0  0
 18 33  1  0  0  0  0
 18 34  1  0  0  0  0
 18 35  1  0  0  0  0
 20 36  1  0  0  0  0
 20 37  1  0  0  0  0
 20 38  1  0  0  0  0
M  END
