10
 xtb: 6.7.1 (edcfbbe)
C           -0.59703989945664       -0.01050586569088       -0.47143375466431
C            0.59701018062056        0.01052387427835        0.47142222043756
O            1.83360523116252       -0.01171069530691       -0.25927007731387
O           -1.83363889801991        0.01172583644082        0.25925380049156
H           -0.59862783937797       -0.93885592869527       -1.05306278904765
H           -0.53905286195579        0.83509844082933       -1.17068989366183
H            0.53902416301147       -0.83507893591322        1.17067973035378
H            0.59860014943261        0.93887486858953        1.05305102720525
H            1.88555142100736       -0.86481386817153       -0.70993861587644
H           -1.88552115098819        0.86477469358312        0.71003582367771
