 xtb: 6.7.1 (edcfbbe)
          04092505203D

 41 40  0     0  0            999 V2000
    1.4881   -1.2787   -2.7153 C   0  0  0  0  0  0  0  0  0  0  0  0
    2.4129   -0.1119   -2.4407 C   0  0  0  0  0  0  0  0  0  0  0  0
    2.1143    0.5457   -1.1848 O   0  0  0  0  0  0  0  0  0  0  0  0
    2.2599   -0.0842    0.2496 P   0  0  0  0  0  0  0  0  0  0  0  0
    2.4320    1.2919    1.6325 S   0  0  0  0  0  0  0  0  0  0  0  0
    3.5093   -1.0442    0.0211 O   0  0  0  0  0  0  0  0  0  0  0  0
    4.0205   -1.9635    1.0043 C   0  0  0  0  0  0  0  0  0  0  0  0
    4.9531   -1.2821    1.9862 C   0  0  0  0  0  0  0  0  0  0  0  0
    0.6963   -1.4917    0.6132 S   0  0  0  0  0  0  0  0  0  0  0  0
   -0.2332   -0.6531    1.9307 C   0  0  0  0  0  0  0  0  0  0  0  0
   -1.9995   -0.5486    1.5701 S   0  0  0  0  0  0  0  0  0  0  0  0
   -1.8787    0.5670   -0.2395 P   0  0  0  0  0  0  0  0  0  0  0  0
   -0.5798    2.0338   -0.2560 S   0  0  0  0  0  0  0  0  0  0  0  0
   -3.3921    0.9895   -0.4648 O   0  0  0  0  0  0  0  0  0  0  0  0
   -4.0204    1.9876    0.3655 C   0  0  0  0  0  0  0  0  0  0  0  0
   -5.2952    2.4294   -0.3239 C   0  0  0  0  0  0  0  0  0  0  0  0
   -1.6300   -0.4669   -1.3988 O   0  0  0  0  0  0  0  0  0  0  0  0
   -2.4689   -1.6335   -1.6199 C   0  0  0  0  0  0  0  0  0  0  0  0
   -3.4820   -1.3597   -2.7113 C   0  0  0  0  0  0  0  0  0  0  0  0
    0.4526   -0.9517   -2.6554 H   0  0  0  0  0  0  0  0  0  0  0  0
    1.6873   -1.6623   -3.7110 H   0  0  0  0  0  0  0  0  0  0  0  0
    1.6507   -2.0720   -1.9872 H   0  0  0  0  0  0  0  0  0  0  0  0
    2.2790    0.6871   -3.1719 H   0  0  0  0  0  0  0  0  0  0  0  0
    3.4572   -0.4290   -2.4192 H   0  0  0  0  0  0  0  0  0  0  0  0
    3.1795   -2.4342    1.5211 H   0  0  0  0  0  0  0  0  0  0  0  0
    4.5506   -2.7121    0.4119 H   0  0  0  0  0  0  0  0  0  0  0  0
    5.3631   -2.0250    2.6626 H   0  0  0  0  0  0  0  0  0  0  0  0
    5.7647   -0.7925    1.4546 H   0  0  0  0  0  0  0  0  0  0  0  0
    4.4163   -0.5319    2.5626 H   0  0  0  0  0  0  0  0  0  0  0  0
    0.1871    0.3489    2.0612 H   0  0  0  0  0  0  0  0  0  0  0  0
   -0.1482   -1.2356    2.8447 H   0  0  0  0  0  0  0  0  0  0  0  0
   -4.2273    1.5384    1.3405 H   0  0  0  0  0  0  0  0  0  0  0  0
   -3.3223    2.8211    0.4959 H   0  0  0  0  0  0  0  0  0  0  0  0
   -5.9595    1.5805   -0.4564 H   0  0  0  0  0  0  0  0  0  0  0  0
   -5.7878    3.1788    0.2869 H   0  0  0  0  0  0  0  0  0  0  0  0
   -5.0652    2.8552   -1.2966 H   0  0  0  0  0  0  0  0  0  0  0  0
   -1.7701   -2.4222   -1.9053 H   0  0  0  0  0  0  0  0  0  0  0  0
   -2.9592   -1.8991   -0.6796 H   0  0  0  0  0  0  0  0  0  0  0  0
   -4.0555   -2.2627   -2.8951 H   0  0  0  0  0  0  0  0  0  0  0  0
   -4.1543   -0.5617   -2.4078 H   0  0  0  0  0  0  0  0  0  0  0  0
   -2.9770   -1.0627   -3.6262 H   0  0  0  0  0  0  0  0  0  0  0  0
  1  2  1  0  0  0  0
  2  3  1  0  0  0  0
  3  4  2  0  0  0  0
  4  5  2  0  0  0  0
  4  6  2  0  0  0  0
  6  7  1  0  0  0  0
  7  8  1  0  0  0  0
  4  9  1  0  0  0  0
  9 10  1  0  0  0  0
 10 11  1  0  0  0  0
 11 12  1  0  0  0  0
 12 13  2  0  0  0  0
 12 14  2  0  0  0  0
 14 15  1  0  0  0  0
 15 16  1  0  0  0  0
 12 17  2  0  0  0  0
 17 18  1  0  0  0  0
 18 19  1  0  0  0  0
  1 20  1  0  0  0  0
  1 21  1  0  0  0  0
  1 22  1  0  0  0  0
  2 23  1  0  0  0  0
  2 24  1  0  0  0  0
  7 25  1  0  0  0  0
  7 26  1  0  0  0  0
  8 27  1  0  0  0  0
  8 28  1  0  0  0  0
  8 29  1  0  0  0  0
 10 30  1  0  0  0  0
 10 31  1  0  0  0  0
 15 32  1  0  0  0  0
 15 33  1  0  0  0  0
 16 34  1  0  0  0  0
 16 35  1  0  0  0  0
 16 36  1  0  0  0  0
 18 37  1  0  0  0  0
 18 38  1  0  0  0  0
 19 39  1  0  0  0  0
 19 40  1  0  0  0  0
 19 41  1  0  0  0  0
M  END
