 xtb: 6.7.1 (edcfbbe)
          04032520213D

 16 16  0     0  0            999 V2000
   -0.6841   -1.1991    0.3354 C   0  0  0  0  0  0  0  0  0  0  0  0
    0.6855   -1.1985   -0.3353 C   0  0  0  0  0  0  0  0  0  0  0  0
    1.4840    0.0202    0.1213 C   0  0  0  0  0  0  0  0  0  0  0  0
    0.6583    1.2687    0.0550 C   0  0  0  0  0  0  0  0  0  0  0  0
   -0.6598    1.2679   -0.0550 C   0  0  0  0  0  0  0  0  0  0  0  0
   -1.4841    0.0185   -0.1213 C   0  0  0  0  0  0  0  0  0  0  0  0
   -0.5520   -1.1604    1.4187 H   0  0  0  0  0  0  0  0  0  0  0  0
   -1.2269   -2.1146    0.0932 H   0  0  0  0  0  0  0  0  0  0  0  0
    1.2293   -2.1133   -0.0929 H   0  0  0  0  0  0  0  0  0  0  0  0
    0.5533   -1.1601   -1.4187 H   0  0  0  0  0  0  0  0  0  0  0  0
    1.8240   -0.1231    1.1526 H   0  0  0  0  0  0  0  0  0  0  0  0
    2.3772    0.1405   -0.4966 H   0  0  0  0  0  0  0  0  0  0  0  0
    1.2029    2.2016    0.1128 H   0  0  0  0  0  0  0  0  0  0  0  0
   -1.2055    2.2003   -0.1126 H   0  0  0  0  0  0  0  0  0  0  0  0
   -2.3775    0.1378    0.4964 H   0  0  0  0  0  0  0  0  0  0  0  0
   -1.8239   -0.1252   -1.1525 H   0  0  0  0  0  0  0  0  0  0  0  0
  1  2  1  0  0  0  0
  2  3  1  0  0  0  0
  3  4  1  0  0  0  0
  4  5  2  0  0  0  0
  1  6  1  0  0  0  0
  5  6  1  0  0  0  0
  1  7  1  0  0  0  0
  1  8  1  0  0  0  0
  2  9  1  0  0  0  0
  2 10  1  0  0  0  0
  3 11  1  0  0  0  0
  3 12  1  0  0  0  0
  4 13  1  0  0  0  0
  5 14  1  0  0  0  0
  6 15  1  0  0  0  0
  6 16  1  0  0  0  0
M  END
