41
 xtb: 6.7.1 (edcfbbe)
C            3.26891757719985       -0.20685805152720       -2.60619716204053
C            2.00965146226488        0.35836622524073       -1.99768032385022
O            1.50302419625480       -0.50264867959711       -0.91890240436558
P            2.15832755171830       -0.51941936280310        0.54410824286639
S            2.92305203319255        1.14606526875278        1.20027401562239
O            3.15440536729369       -1.78221399965913        0.41578235253053
C            4.12842055062520       -2.07201855948815        1.47932681692324
C            4.80135137739742       -3.37159620036399        1.12321002401560
S            0.63245137634770       -1.39385521827743        1.72495838191134
C           -0.33849312335726        0.08003938860910        2.27173865147780
S           -2.09897553698112        0.04236144956954        1.76744885610947
P           -2.01791527423246        0.92954121555279       -0.16771716200741
S           -0.90554079841082        2.51457694682007       -0.30563562661591
O           -3.59391542989698        1.05382472488719       -0.46081820311138
C           -4.39932533042639        2.11912350075996        0.16552529281448
C           -4.86450077650449        3.07622551099865       -0.90089915327323
O           -1.57624802027283       -0.18674523148644       -1.22490565882475
C           -2.30276604907813       -1.46141821898515       -1.36965520847231
C           -1.33453874445679       -2.46954169842375       -1.93007834999030
H            4.09933036674460       -0.19590326874925       -1.89371536147857
H            3.10962948787054       -1.23199948659084       -2.95303420500995
H            3.55080734347647        0.40911795523243       -3.46649533035139
H            1.18505657813435        0.38062101477008       -2.71338049755736
H            2.15929398735011        1.36411538573064       -1.59425472757356
H            4.83854164877511       -1.24111508927751        1.52076335316808
H            3.59636946879928       -2.13996830812499        2.43415140979079
H            4.07857836863518       -4.19131721930393        1.08561775815692
H            5.30911567768178       -3.29602504489633        0.15748737343159
H            5.54812568855315       -3.60316434699102        1.88878324943765
H            0.13928699216561        0.99847384681196        1.91190340375053
H           -0.34342040661527        0.08507668611792        3.36412354698773
H           -5.23221503103159        1.60327290463976        0.64892725471002
H           -3.80273349208673        2.62481457368333        0.93121811352122
H           -5.43703828676619        2.55328890869492       -1.67208983479103
H           -5.51195328361642        3.83058998478562       -0.44225851097446
H           -4.01585534378366        3.58459012614698       -1.36709091782615
H           -2.68118583189757       -1.76930019947764       -0.38958242709085
H           -3.14562149092942       -1.27801650377975       -2.04147275738022
H           -0.92017277072800       -2.12694947938818       -2.88273462637406
H           -0.51642629507234       -2.65598104904859       -1.22900177096243
H           -1.86588043015485       -3.41066425244706       -2.10284488283220
