 xtb: 6.7.1 (edcfbbe)
          04092514003D

 41 40  0     0  0            999 V2000
    4.6587   -1.3777   -1.9524 C   0  0  0  0  0  0  0  0  0  0  0  0
    3.5678   -2.2854   -1.4213 C   0  0  0  0  0  0  0  0  0  0  0  0
    2.9636   -1.7952   -0.2086 O   0  0  0  0  0  0  0  0  0  0  0  0
    2.2195   -0.4072   -0.0254 P   0  0  0  0  0  0  0  0  0  0  0  0
    3.3157    1.2060    0.1944 S   0  0  0  0  0  0  0  0  0  0  0  0
    1.3055   -0.7730    1.2176 O   0  0  0  0  0  0  0  0  0  0  0  0
    1.4292   -0.1629    2.5143 C   0  0  0  0  0  0  0  0  0  0  0  0
    2.4643   -0.8858    3.3515 C   0  0  0  0  0  0  0  0  0  0  0  0
    0.8272   -0.3965   -1.6327 S   0  0  0  0  0  0  0  0  0  0  0  0
    0.4022    1.3613   -1.5588 C   0  0  0  0  0  0  0  0  0  0  0  0
   -0.3900    1.8494    0.0038 S   0  0  0  0  0  0  0  0  0  0  0  0
   -2.1122    0.6466   -0.1801 P   0  0  0  0  0  0  0  0  0  0  0  0
   -2.8436    0.3428   -1.9751 S   0  0  0  0  0  0  0  0  0  0  0  0
   -3.0054    1.4855    0.8236 O   0  0  0  0  0  0  0  0  0  0  0  0
   -4.3435    1.0335    1.1461 C   0  0  0  0  0  0  0  0  0  0  0  0
   -5.0485    2.1445    1.8962 C   0  0  0  0  0  0  0  0  0  0  0  0
   -1.8269   -0.6861    0.6474 O   0  0  0  0  0  0  0  0  0  0  0  0
   -1.7433   -2.0087    0.0893 C   0  0  0  0  0  0  0  0  0  0  0  0
   -2.8961   -2.8457    0.6080 C   0  0  0  0  0  0  0  0  0  0  0  0
    5.4106   -1.1969   -1.1883 H   0  0  0  0  0  0  0  0  0  0  0  0
    5.1272   -1.8495   -2.8107 H   0  0  0  0  0  0  0  0  0  0  0  0
    4.2409   -0.4204   -2.2594 H   0  0  0  0  0  0  0  0  0  0  0  0
    3.9697   -3.2572   -1.1285 H   0  0  0  0  0  0  0  0  0  0  0  0
    2.7793   -2.4203   -2.1670 H   0  0  0  0  0  0  0  0  0  0  0  0
    1.6956    0.8922    2.3889 H   0  0  0  0  0  0  0  0  0  0  0  0
    0.4298   -0.2374    2.9470 H   0  0  0  0  0  0  0  0  0  0  0  0
    2.4902   -0.4503    4.3456 H   0  0  0  0  0  0  0  0  0  0  0  0
    2.2194   -1.9418    3.4247 H   0  0  0  0  0  0  0  0  0  0  0  0
    3.4459   -0.7833    2.8913 H   0  0  0  0  0  0  0  0  0  0  0  0
   -0.2746    1.5463   -2.3922 H   0  0  0  0  0  0  0  0  0  0  0  0
    1.3078    1.9622   -1.6384 H   0  0  0  0  0  0  0  0  0  0  0  0
   -4.8621    0.7879    0.2130 H   0  0  0  0  0  0  0  0  0  0  0  0
   -4.2590    0.1314    1.7580 H   0  0  0  0  0  0  0  0  0  0  0  0
   -5.1342    3.0264    1.2680 H   0  0  0  0  0  0  0  0  0  0  0  0
   -6.0408    1.8074    2.1788 H   0  0  0  0  0  0  0  0  0  0  0  0
   -4.4874    2.4035    2.7893 H   0  0  0  0  0  0  0  0  0  0  0  0
   -1.7719   -1.9399   -1.0034 H   0  0  0  0  0  0  0  0  0  0  0  0
   -0.7765   -2.4080    0.4040 H   0  0  0  0  0  0  0  0  0  0  0  0
   -2.7914   -3.8611    0.2401 H   0  0  0  0  0  0  0  0  0  0  0  0
   -2.8946   -2.8549    1.6945 H   0  0  0  0  0  0  0  0  0  0  0  0
   -3.8409   -2.4365    0.2563 H   0  0  0  0  0  0  0  0  0  0  0  0
  1  2  1  0  0  0  0
  2  3  1  0  0  0  0
  3  4  2  0  0  0  0
  4  5  2  0  0  0  0
  4  6  2  0  0  0  0
  6  7  1  0  0  0  0
  7  8  1  0  0  0  0
  4  9  1  0  0  0  0
  9 10  1  0  0  0  0
 10 11  1  0  0  0  0
 11 12  1  0  0  0  0
 12 13  2  0  0  0  0
 12 14  2  0  0  0  0
 14 15  1  0  0  0  0
 15 16  1  0  0  0  0
 12 17  2  0  0  0  0
 17 18  1  0  0  0  0
 18 19  1  0  0  0  0
  1 20  1  0  0  0  0
  1 21  1  0  0  0  0
  1 22  1  0  0  0  0
  2 23  1  0  0  0  0
  2 24  1  0  0  0  0
  7 25  1  0  0  0  0
  7 26  1  0  0  0  0
  8 27  1  0  0  0  0
  8 28  1  0  0  0  0
  8 29  1  0  0  0  0
 10 30  1  0  0  0  0
 10 31  1  0  0  0  0
 15 32  1  0  0  0  0
 15 33  1  0  0  0  0
 16 34  1  0  0  0  0
 16 35  1  0  0  0  0
 16 36  1  0  0  0  0
 18 37  1  0  0  0  0
 18 38  1  0  0  0  0
 19 39  1  0  0  0  0
 19 40  1  0  0  0  0
 19 41  1  0  0  0  0
M  END
