 xtb: 6.7.1 (edcfbbe)
          04092505213D

 41 40  0     0  0            999 V2000
    3.2749    2.4438   -0.4688 C   0  0  0  0  0  0  0  0  0  0  0  0
    1.9678    1.6983   -0.6298 C   0  0  0  0  0  0  0  0  0  0  0  0
    1.6144    1.0135    0.5993 O   0  0  0  0  0  0  0  0  0  0  0  0
    1.9270   -0.5090    0.8608 P   0  0  0  0  0  0  0  0  0  0  0  0
    1.5479   -1.0605    2.6962 S   0  0  0  0  0  0  0  0  0  0  0  0
    3.4434   -0.6355    0.4091 O   0  0  0  0  0  0  0  0  0  0  0  0
    4.1592   -1.8802    0.5548 C   0  0  0  0  0  0  0  0  0  0  0  0
    5.6376   -1.5862    0.4028 C   0  0  0  0  0  0  0  0  0  0  0  0
    0.9260   -1.6131   -0.6671 S   0  0  0  0  0  0  0  0  0  0  0  0
   -0.6445   -1.8487    0.2151 C   0  0  0  0  0  0  0  0  0  0  0  0
   -1.3362   -0.3328    0.9237 S   0  0  0  0  0  0  0  0  0  0  0  0
   -2.1890    0.4947   -0.8606 P   0  0  0  0  0  0  0  0  0  0  0  0
   -1.0413    0.6213   -2.4358 S   0  0  0  0  0  0  0  0  0  0  0  0
   -2.8051    1.8452   -0.2885 O   0  0  0  0  0  0  0  0  0  0  0  0
   -1.9939    2.9361    0.1902 C   0  0  0  0  0  0  0  0  0  0  0  0
   -1.6694    3.9080   -0.9278 C   0  0  0  0  0  0  0  0  0  0  0  0
   -3.4753   -0.3495   -1.1863 O   0  0  0  0  0  0  0  0  0  0  0  0
   -4.5926   -0.5380   -0.2785 C   0  0  0  0  0  0  0  0  0  0  0  0
   -4.5655   -1.9321    0.3162 C   0  0  0  0  0  0  0  0  0  0  0  0
    4.0874    1.7447   -0.2913 H   0  0  0  0  0  0  0  0  0  0  0  0
    3.4738    3.0044   -1.3767 H   0  0  0  0  0  0  0  0  0  0  0  0
    3.2098    3.1288    0.3721 H   0  0  0  0  0  0  0  0  0  0  0  0
    2.0142    0.9712   -1.4455 H   0  0  0  0  0  0  0  0  0  0  0  0
    1.1376    2.3835   -0.8135 H   0  0  0  0  0  0  0  0  0  0  0  0
    3.9306   -2.2981    1.5408 H   0  0  0  0  0  0  0  0  0  0  0  0
    3.8059   -2.5689   -0.2174 H   0  0  0  0  0  0  0  0  0  0  0  0
    5.8324   -1.1517   -0.5735 H   0  0  0  0  0  0  0  0  0  0  0  0
    5.9607   -0.8898    1.1717 H   0  0  0  0  0  0  0  0  0  0  0  0
    6.1954   -2.5116    0.5013 H   0  0  0  0  0  0  0  0  0  0  0  0
   -0.4772   -2.5177    1.0581 H   0  0  0  0  0  0  0  0  0  0  0  0
   -1.3386   -2.2776   -0.5051 H   0  0  0  0  0  0  0  0  0  0  0  0
   -2.6035    3.4102    0.9621 H   0  0  0  0  0  0  0  0  0  0  0  0
   -1.0845    2.5351    0.6485 H   0  0  0  0  0  0  0  0  0  0  0  0
   -1.0848    4.7309   -0.5290 H   0  0  0  0  0  0  0  0  0  0  0  0
   -1.1020    3.4096   -1.7112 H   0  0  0  0  0  0  0  0  0  0  0  0
   -2.5873    4.2952   -1.3610 H   0  0  0  0  0  0  0  0  0  0  0  0
   -4.5577    0.2287    0.4969 H   0  0  0  0  0  0  0  0  0  0  0  0
   -5.4752   -0.3911   -0.9027 H   0  0  0  0  0  0  0  0  0  0  0  0
   -3.7146   -2.0508    0.9828 H   0  0  0  0  0  0  0  0  0  0  0  0
   -5.4781   -2.0908    0.8820 H   0  0  0  0  0  0  0  0  0  0  0  0
   -4.5046   -2.6744   -0.4752 H   0  0  0  0  0  0  0  0  0  0  0  0
  1  2  1  0  0  0  0
  2  3  1  0  0  0  0
  3  4  2  0  0  0  0
  4  5  2  0  0  0  0
  4  6  2  0  0  0  0
  6  7  1  0  0  0  0
  7  8  1  0  0  0  0
  4  9  1  0  0  0  0
  9 10  1  0  0  0  0
 10 11  1  0  0  0  0
 11 12  1  0  0  0  0
 12 13  2  0  0  0  0
 12 14  2  0  0  0  0
 14 15  1  0  0  0  0
 15 16  1  0  0  0  0
 12 17  2  0  0  0  0
 17 18  1  0  0  0  0
 18 19  1  0  0  0  0
  1 20  1  0  0  0  0
  1 21  1  0  0  0  0
  1 22  1  0  0  0  0
  2 23  1  0  0  0  0
  2 24  1  0  0  0  0
  7 25  1  0  0  0  0
  7 26  1  0  0  0  0
  8 27  1  0  0  0  0
  8 28  1  0  0  0  0
  8 29  1  0  0  0  0
 10 30  1  0  0  0  0
 10 31  1  0  0  0  0
 15 32  1  0  0  0  0
 15 33  1  0  0  0  0
 16 34  1  0  0  0  0
 16 35  1  0  0  0  0
 16 36  1  0  0  0  0
 18 37  1  0  0  0  0
 18 38  1  0  0  0  0
 19 39  1  0  0  0  0
 19 40  1  0  0  0  0
 19 41  1  0  0  0  0
M  END
