41
 xtb: 6.7.1 (edcfbbe)
C            5.15962854333628       -1.37972270475717       -0.84159740195803
C            4.92489639228378       -0.07713073396403       -0.11870723587407
O            3.59243551901554       -0.02223538126156        0.49953282492854
P            2.25239174726857        0.30980645508814       -0.33125579256129
S            2.44942557952576        1.35416319180815       -1.96353972395359
O            1.30890415998218        0.93184500370438        0.81224730841002
C            1.29162615180273        2.37959710146260        1.07822697979605
C            2.56228097133638        2.84756701346960        1.74523089112185
S            1.46336244494181       -1.64274470393860       -0.53376272425268
C            0.06271175173305       -1.36871813074615       -1.70835719326819
S           -1.55822612295420       -1.95131478973862       -1.08323942702390
P           -2.28257612120591       -0.22984618111638       -0.08671777366954
S           -1.97943653685836        1.47090536006458       -0.98440948752220
O           -1.66235201057784       -0.40264454125690        1.38354662732725
C           -1.89861639866951        0.63108907843417        2.40926197338913
C           -0.97310967821709        0.33701329146072        3.55993110721811
O           -3.81315161179231       -0.65415071127078        0.17854774202718
C           -4.84963956221458       -0.49923436806262       -0.85337118129484
C           -6.17924110347054       -0.42490411029949       -0.14912216993607
H            4.99894578281024       -2.23314883808198       -0.17643222350564
H            4.50851338714402       -1.47891039181844       -1.71482311851337
H            6.19843760290207       -1.40294269904637       -1.18710392598130
H            5.03058915745025        0.78580316829419       -0.78272043347043
H            5.60278267675885        0.04012183303479        0.72923834641785
H            1.10654028251210        2.89810546392285        0.13270337703220
H            0.42508559689866        2.50890960513836        1.72951920583663
H            3.42628203652852        2.76132252252066        1.07925028482094
H            2.44483217109849        3.90276947570353        2.01346978599397
H            2.75815442088086        2.27929240196689        2.65921177682484
H            0.26288216834842       -1.95942796893297       -2.60497707139375
H           -0.00058076115349       -0.31046253670266       -1.98507987898289
H           -1.70026786403576        1.61090811262262        1.96436952859426
H           -2.95113489832030        0.57331672773287        2.70427364044433
H            0.07311202280686        0.38347800505178        3.24424312732407
H           -1.13286356150206        1.08732093991352        4.34051652799506
H           -1.17571406166647       -0.65049248586965        3.98405125017940
H           -4.64251309993047        0.41099306347523       -1.42453508404088
H           -4.78640198318861       -1.36674361245431       -1.51772503460497
H           -6.97159339938869       -0.33755066722289       -0.89898841511619
H           -6.36255175774745       -1.32642782062047        0.44240398298565
H           -6.22495698540000        0.44964822790690        0.50618873357976
