 xtb: 6.7.1 (edcfbbe)
          04092507313D

 38 37  0     0  0            999 V2000
    4.9926   -2.8402   -1.5059 C   0  0  0  0  0  0  0  0  0  0  0  0
    3.8240   -3.2552   -0.6266 C   0  0  0  0  0  0  0  0  0  0  0  0
    2.5777   -2.7639   -1.1626 O   0  0  0  0  0  0  0  0  0  0  0  0
    2.1901   -1.5492   -0.8436 C   0  0  0  0  0  0  0  0  0  0  0  0
    2.7958   -0.8009   -0.1029 O   0  0  0  0  0  0  0  0  0  0  0  0
    0.8631   -1.2005   -1.4803 C   0  0  0  0  0  0  0  0  0  0  0  0
    0.5808    0.2900   -1.3278 C   0  0  0  0  0  0  0  0  0  0  0  0
    1.1234    0.8932   -2.0562 H   0  0  0  0  0  0  0  0  0  0  0  0
    0.9005    0.7800    0.0701 C   0  0  0  0  0  0  0  0  0  0  0  0
    0.3712    0.2846    1.0494 O   0  0  0  0  0  0  0  0  0  0  0  0
    1.6927    1.8151    0.0675 O   0  0  0  0  0  0  0  0  0  0  0  0
    2.0457    2.4288    1.3250 C   0  0  0  0  0  0  0  0  0  0  0  0
    1.1301    3.6060    1.6179 C   0  0  0  0  0  0  0  0  0  0  0  0
   -1.1890    0.6474   -1.5896 S   0  0  0  0  0  0  0  0  0  0  0  0
   -2.1150    0.2266    0.2772 P   0  0  0  0  0  0  0  0  0  0  0  0
   -2.1440    1.5238    1.7566 S   0  0  0  0  0  0  0  0  0  0  0  0
   -3.6077    0.0203   -0.2779 O   0  0  0  0  0  0  0  0  0  0  0  0
   -4.4465    1.1205   -0.6377 C   0  0  0  0  0  0  0  0  0  0  0  0
   -1.7961   -1.3062    0.5652 O   0  0  0  0  0  0  0  0  0  0  0  0
   -1.6559   -1.8096    1.9007 C   0  0  0  0  0  0  0  0  0  0  0  0
    5.9051   -3.2823   -1.1199 H   0  0  0  0  0  0  0  0  0  0  0  0
    4.8328   -3.1799   -2.5253 H   0  0  0  0  0  0  0  0  0  0  0  0
    5.0970   -1.7576   -1.5035 H   0  0  0  0  0  0  0  0  0  0  0  0
    3.9445   -2.8676    0.3889 H   0  0  0  0  0  0  0  0  0  0  0  0
    3.7024   -4.3381   -0.6100 H   0  0  0  0  0  0  0  0  0  0  0  0
    0.0965   -1.7835   -0.9612 H   0  0  0  0  0  0  0  0  0  0  0  0
    0.8559   -1.4969   -2.5283 H   0  0  0  0  0  0  0  0  0  0  0  0
    1.9814    1.6721    2.1111 H   0  0  0  0  0  0  0  0  0  0  0  0
    3.0791    2.7488    1.1897 H   0  0  0  0  0  0  0  0  0  0  0  0
    1.4628    4.0992    2.5250 H   0  0  0  0  0  0  0  0  0  0  0  0
    1.1542    4.3126    0.7933 H   0  0  0  0  0  0  0  0  0  0  0  0
    0.1064    3.2646    1.7618 H   0  0  0  0  0  0  0  0  0  0  0  0
   -4.3770    1.9065    0.1172 H   0  0  0  0  0  0  0  0  0  0  0  0
   -5.4564    0.7202   -0.6772 H   0  0  0  0  0  0  0  0  0  0  0  0
   -4.1490    1.5107   -1.6107 H   0  0  0  0  0  0  0  0  0  0  0  0
   -0.8002   -1.3345    2.3816 H   0  0  0  0  0  0  0  0  0  0  0  0
   -1.4932   -2.8785    1.7882 H   0  0  0  0  0  0  0  0  0  0  0  0
   -2.5586   -1.6157    2.4782 H   0  0  0  0  0  0  0  0  0  0  0  0
  1  2  1  0  0  0  0
  2  3  1  0  0  0  0
  3  4  4  0  0  0  0
  4  5  2  0  0  0  0
  4  6  1  0  0  0  0
  6  7  1  0  0  0  0
  7  8  1  0  0  0  0
  7  9  1  0  0  0  0
  9 10  2  0  0  0  0
  9 11  4  0  0  0  0
 11 12  1  0  0  0  0
 12 13  1  0  0  0  0
  7 14  1  0  0  0  0
 14 15  1  0  0  0  0
 15 16  2  0  0  0  0
 15 17  1  0  0  0  0
 17 18  1  0  0  0  0
 15 19  1  0  0  0  0
 19 20  1  0  0  0  0
  1 21  1  0  0  0  0
  1 22  1  0  0  0  0
  1 23  1  0  0  0  0
  2 24  1  0  0  0  0
  2 25  1  0  0  0  0
  6 26  1  0  0  0  0
  6 27  1  0  0  0  0
 12 28  1  0  0  0  0
 12 29  1  0  0  0  0
 13 30  1  0  0  0  0
 13 31  1  0  0  0  0
 13 32  1  0  0  0  0
 18 33  1  0  0  0  0
 18 34  1  0  0  0  0
 18 35  1  0  0  0  0
 20 36  1  0  0  0  0
 20 37  1  0  0  0  0
 20 38  1  0  0  0  0
M  END
