41
 xtb: 6.7.1 (edcfbbe)
C            4.20720041945074       -2.09989433219584       -1.67422910483420
C            4.83753469791561       -0.81863331915332       -1.18652155842871
O            4.11113341291002       -0.22645400345487       -0.05456077159656
P            2.68806836769786        0.49483263920861       -0.24785631769053
S            2.38889089325173        1.44876826873261       -1.91707890670819
O            2.76470675380845        1.35798978010506        1.10964286488362
C            1.62168190144568        2.19320660309930        1.50213628574896
C            1.99225483614343        2.87520204535377        2.79289000040424
S            1.23230556708418       -0.99158042952370        0.21674897764981
C            0.10749297713551       -0.93264507281156       -1.24819590297890
S           -1.54943403128335       -1.57292554301691       -0.82290225542588
P           -2.36336605307165        0.10640583850385        0.21520436457520
S           -1.92370048009495        1.85080135620900       -0.52062244552888
O           -1.92144531259816       -0.00007831109966        1.75241661467107
C           -1.78244984076216       -1.24641621734814        2.52549343568969
C           -3.10476767285641       -1.90231656248149        2.83689638897402
O           -3.91389484398970       -0.31762518896384        0.26071188468188
C           -4.91595627399285        0.19891929815670       -0.68578758463378
C           -4.82690623953687       -0.46786835091375       -2.03503263284228
H            4.10030170080111       -2.82295678966917       -0.86094942882763
H            3.22731850982869       -1.92487392271815       -2.12878296249933
H            4.86096883809684       -2.53332151338733       -2.43830804306452
H            4.90348006239609       -0.06822908193382       -1.97999737043815
H            5.83501612271820       -0.99384935227376       -0.77916511979264
H            1.43096394283576        2.91359016114433        0.70020989682145
H            0.74543240119344        1.54627581391401        1.62039802930583
H            2.87362843931806        3.50936614184416        2.66249073440324
H            1.15621395301635        3.50595588669796        3.11030421930248
H            2.19058365554789        2.14278046931477        3.58045248000243
H            0.49005389833416       -1.58229075971048       -2.03963575779153
H            0.02730152041931        0.09697229012510       -1.60775473859282
H           -1.11495297076135       -1.91720104606454        1.97711231430790
H           -1.27701038402103       -0.91398557469353        3.43434576310561
H           -2.91890911957835       -2.71801640236907        3.54366856158501
H           -3.79665868487501       -1.19524849709185        3.30326604175474
H           -3.57242201695994       -2.32770626963308        1.94540497496163
H           -5.86416142671198       -0.01995193784334       -0.19086523354684
H           -4.79001541718068        1.28324989485254       -0.75493225885675
H           -4.89930216450594       -1.55547544777350       -1.94310157346205
H           -5.66397381337297       -0.11739390972977       -2.64805884988991
H           -3.89755884700260       -0.21235294934145       -2.55164056841847
