 xtb: 6.7.1 (edcfbbe)
          04092514013D

 41 40  0     0  0            999 V2000
    2.9527    2.2751   -1.6211 C   0  0  0  0  0  0  0  0  0  0  0  0
    3.7015    1.8917   -0.3601 C   0  0  0  0  0  0  0  0  0  0  0  0
    3.5594    0.4949   -0.0558 O   0  0  0  0  0  0  0  0  0  0  0  0
    2.2482   -0.1235    0.5990 P   0  0  0  0  0  0  0  0  0  0  0  0
    1.4228    1.0042    1.9766 S   0  0  0  0  0  0  0  0  0  0  0  0
    2.7489   -1.5491    1.0768 O   0  0  0  0  0  0  0  0  0  0  0  0
    3.2094   -1.7917    2.4258 C   0  0  0  0  0  0  0  0  0  0  0  0
    4.5520   -1.1474    2.7023 C   0  0  0  0  0  0  0  0  0  0  0  0
    1.1038   -0.6832   -1.0970 S   0  0  0  0  0  0  0  0  0  0  0  0
   -0.0839   -1.8380   -0.3515 C   0  0  0  0  0  0  0  0  0  0  0  0
   -1.3630   -1.0748    0.6834 S   0  0  0  0  0  0  0  0  0  0  0  0
   -2.3778    0.0059   -0.8552 P   0  0  0  0  0  0  0  0  0  0  0  0
   -2.3897   -0.8158   -2.6261 S   0  0  0  0  0  0  0  0  0  0  0  0
   -1.7086    1.4364   -0.8582 O   0  0  0  0  0  0  0  0  0  0  0  0
   -1.7550    2.3097    0.2997 C   0  0  0  0  0  0  0  0  0  0  0  0
   -0.8374    3.4831    0.0348 C   0  0  0  0  0  0  0  0  0  0  0  0
   -3.8005    0.3198   -0.2132 O   0  0  0  0  0  0  0  0  0  0  0  0
   -4.9672   -0.5010   -0.4118 C   0  0  0  0  0  0  0  0  0  0  0  0
   -4.8677   -1.8365    0.2958 C   0  0  0  0  0  0  0  0  0  0  0  0
    3.1368    3.3212   -1.8453 H   0  0  0  0  0  0  0  0  0  0  0  0
    3.2806    1.6635   -2.4576 H   0  0  0  0  0  0  0  0  0  0  0  0
    1.8817    2.1237   -1.4869 H   0  0  0  0  0  0  0  0  0  0  0  0
    3.3450    2.4726    0.4975 H   0  0  0  0  0  0  0  0  0  0  0  0
    4.7771    2.0307   -0.4802 H   0  0  0  0  0  0  0  0  0  0  0  0
    2.4532   -1.4155    3.1222 H   0  0  0  0  0  0  0  0  0  0  0  0
    3.2673   -2.8793    2.4902 H   0  0  0  0  0  0  0  0  0  0  0  0
    4.8807   -1.4283    3.6987 H   0  0  0  0  0  0  0  0  0  0  0  0
    5.2894   -1.4742    1.9742 H   0  0  0  0  0  0  0  0  0  0  0  0
    4.4640   -0.0631    2.6540 H   0  0  0  0  0  0  0  0  0  0  0  0
    0.4417   -2.5499    0.2794 H   0  0  0  0  0  0  0  0  0  0  0  0
   -0.5613   -2.3332   -1.1975 H   0  0  0  0  0  0  0  0  0  0  0  0
   -2.7891    2.6293    0.4408 H   0  0  0  0  0  0  0  0  0  0  0  0
   -1.4284    1.7439    1.1780 H   0  0  0  0  0  0  0  0  0  0  0  0
    0.1865    3.1367   -0.0777 H   0  0  0  0  0  0  0  0  0  0  0  0
   -1.1390    4.0009   -0.8709 H   0  0  0  0  0  0  0  0  0  0  0  0
   -0.8845    4.1628    0.8794 H   0  0  0  0  0  0  0  0  0  0  0  0
   -5.7791    0.1060   -0.0075 H   0  0  0  0  0  0  0  0  0  0  0  0
   -5.1096   -0.6440   -1.4872 H   0  0  0  0  0  0  0  0  0  0  0  0
   -4.6288   -1.6937    1.3465 H   0  0  0  0  0  0  0  0  0  0  0  0
   -5.8186   -2.3534    0.2101 H   0  0  0  0  0  0  0  0  0  0  0  0
   -4.0920   -2.4467   -0.1636 H   0  0  0  0  0  0  0  0  0  0  0  0
  1  2  1  0  0  0  0
  2  3  1  0  0  0  0
  3  4  2  0  0  0  0
  4  5  2  0  0  0  0
  4  6  2  0  0  0  0
  6  7  1  0  0  0  0
  7  8  1  0  0  0  0
  4  9  1  0  0  0  0
  9 10  1  0  0  0  0
 10 11  1  0  0  0  0
 11 12  1  0  0  0  0
 12 13  2  0  0  0  0
 12 14  2  0  0  0  0
 14 15  1  0  0  0  0
 15 16  1  0  0  0  0
 12 17  2  0  0  0  0
 17 18  1  0  0  0  0
 18 19  1  0  0  0  0
  1 20  1  0  0  0  0
  1 21  1  0  0  0  0
  1 22  1  0  0  0  0
  2 23  1  0  0  0  0
  2 24  1  0  0  0  0
  7 25  1  0  0  0  0
  7 26  1  0  0  0  0
  8 27  1  0  0  0  0
  8 28  1  0  0  0  0
  8 29  1  0  0  0  0
 10 30  1  0  0  0  0
 10 31  1  0  0  0  0
 15 32  1  0  0  0  0
 15 33  1  0  0  0  0
 16 34  1  0  0  0  0
 16 35  1  0  0  0  0
 16 36  1  0  0  0  0
 18 37  1  0  0  0  0
 18 38  1  0  0  0  0
 19 39  1  0  0  0  0
 19 40  1  0  0  0  0
 19 41  1  0  0  0  0
M  END
