 xtb: 6.7.1 (edcfbbe)
          04092507313D

 38 37  0     0  0            999 V2000
    1.5339   -3.8159   -2.0608 C   0  0  0  0  0  0  0  0  0  0  0  0
    2.1955   -3.6716   -0.6992 C   0  0  0  0  0  0  0  0  0  0  0  0
    1.8601   -2.4090   -0.0905 O   0  0  0  0  0  0  0  0  0  0  0  0
    2.5453   -1.3421   -0.4528 C   0  0  0  0  0  0  0  0  0  0  0  0
    3.4737   -1.3477   -1.2281 O   0  0  0  0  0  0  0  0  0  0  0  0
    2.0026   -0.0871    0.2050 C   0  0  0  0  0  0  0  0  0  0  0  0
    1.0373    0.5977   -0.7684 C   0  0  0  0  0  0  0  0  0  0  0  0
    1.5585    0.8222   -1.7035 H   0  0  0  0  0  0  0  0  0  0  0  0
    0.4826    1.8856   -0.1883 C   0  0  0  0  0  0  0  0  0  0  0  0
   -0.7094    2.0665   -0.0310 O   0  0  0  0  0  0  0  0  0  0  0  0
    1.4218    2.7309    0.1184 O   0  0  0  0  0  0  0  0  0  0  0  0
    1.0445    3.9987    0.7028 C   0  0  0  0  0  0  0  0  0  0  0  0
    0.6779    5.0054   -0.3744 C   0  0  0  0  0  0  0  0  0  0  0  0
   -0.3699   -0.4611   -1.2394 S   0  0  0  0  0  0  0  0  0  0  0  0
   -1.6586   -0.2417    0.4383 P   0  0  0  0  0  0  0  0  0  0  0  0
   -0.9593    0.1612    2.2366 S   0  0  0  0  0  0  0  0  0  0  0  0
   -2.9830    0.4901   -0.0332 O   0  0  0  0  0  0  0  0  0  0  0  0
   -3.4478    1.7562    0.4381 C   0  0  0  0  0  0  0  0  0  0  0  0
   -2.3221   -1.7010    0.3964 O   0  0  0  0  0  0  0  0  0  0  0  0
   -1.5767   -2.8481    0.8134 C   0  0  0  0  0  0  0  0  0  0  0  0
    0.4587   -3.6793   -1.9787 H   0  0  0  0  0  0  0  0  0  0  0  0
    1.9264   -3.0696   -2.7473 H   0  0  0  0  0  0  0  0  0  0  0  0
    1.7410   -4.8046   -2.4561 H   0  0  0  0  0  0  0  0  0  0  0  0
    3.2833   -3.7320   -0.7924 H   0  0  0  0  0  0  0  0  0  0  0  0
    1.8314   -4.4191    0.0058 H   0  0  0  0  0  0  0  0  0  0  0  0
    2.8267    0.5961    0.4117 H   0  0  0  0  0  0  0  0  0  0  0  0
    1.4871   -0.3504    1.1300 H   0  0  0  0  0  0  0  0  0  0  0  0
    0.2085    3.8294    1.3867 H   0  0  0  0  0  0  0  0  0  0  0  0
    1.9309    4.3092    1.2552 H   0  0  0  0  0  0  0  0  0  0  0  0
    0.4590    5.9605    0.0912 H   0  0  0  0  0  0  0  0  0  0  0  0
    1.5035    5.1271   -1.0699 H   0  0  0  0  0  0  0  0  0  0  0  0
   -0.2008    4.6712   -0.9211 H   0  0  0  0  0  0  0  0  0  0  0  0
   -3.0087    1.9868    1.4101 H   0  0  0  0  0  0  0  0  0  0  0  0
   -4.5287    1.6667    0.5220 H   0  0  0  0  0  0  0  0  0  0  0  0
   -3.1758    2.5280   -0.2795 H   0  0  0  0  0  0  0  0  0  0  0  0
   -2.2302   -3.6993    0.6424 H   0  0  0  0  0  0  0  0  0  0  0  0
   -1.3262   -2.7619    1.8722 H   0  0  0  0  0  0  0  0  0  0  0  0
   -0.6592   -2.9420    0.2310 H   0  0  0  0  0  0  0  0  0  0  0  0
  1  2  1  0  0  0  0
  2  3  1  0  0  0  0
  3  4  1  0  0  0  0
  4  5  2  0  0  0  0
  4  6  1  0  0  0  0
  6  7  1  0  0  0  0
  7  8  1  0  0  0  0
  7  9  1  0  0  0  0
  9 10  2  0  0  0  0
  9 11  4  0  0  0  0
 11 12  1  0  0  0  0
 12 13  1  0  0  0  0
  7 14  1  0  0  0  0
 14 15  1  0  0  0  0
 15 16  2  0  0  0  0
 15 17  2  0  0  0  0
 17 18  1  0  0  0  0
 15 19  1  0  0  0  0
 19 20  1  0  0  0  0
  1 21  1  0  0  0  0
  1 22  1  0  0  0  0
  1 23  1  0  0  0  0
  2 24  1  0  0  0  0
  2 25  1  0  0  0  0
  6 26  1  0  0  0  0
  6 27  1  0  0  0  0
 12 28  1  0  0  0  0
 12 29  1  0  0  0  0
 13 30  1  0  0  0  0
 13 31  1  0  0  0  0
 13 32  1  0  0  0  0
 18 33  1  0  0  0  0
 18 34  1  0  0  0  0
 18 35  1  0  0  0  0
 20 36  1  0  0  0  0
 20 37  1  0  0  0  0
 20 38  1  0  0  0  0
M  END
