 xtb: 6.7.1 (edcfbbe)
          04092505203D

 41 40  0     0  0            999 V2000
    4.5155    0.3821   -1.3681 C   0  0  0  0  0  0  0  0  0  0  0  0
    4.3314   -0.9120   -0.6016 C   0  0  0  0  0  0  0  0  0  0  0  0
    3.3807   -0.8025    0.4696 O   0  0  0  0  0  0  0  0  0  0  0  0
    1.8808   -0.2760    0.3416 P   0  0  0  0  0  0  0  0  0  0  0  0
    1.6522    1.6721    0.2160 S   0  0  0  0  0  0  0  0  0  0  0  0
    1.2661   -0.9408    1.6433 O   0  0  0  0  0  0  0  0  0  0  0  0
    1.1779   -0.2288    2.8912 C   0  0  0  0  0  0  0  0  0  0  0  0
    2.5461    0.0413    3.4812 C   0  0  0  0  0  0  0  0  0  0  0  0
    1.0973   -1.4590   -1.2265 S   0  0  0  0  0  0  0  0  0  0  0  0
    0.2323   -0.1912   -2.2038 C   0  0  0  0  0  0  0  0  0  0  0  0
   -1.5633   -0.4474   -2.3547 S   0  0  0  0  0  0  0  0  0  0  0  0
   -2.2133    0.3057   -0.4993 P   0  0  0  0  0  0  0  0  0  0  0  0
   -4.1386    0.3143   -0.1509 S   0  0  0  0  0  0  0  0  0  0  0  0
   -1.5107    1.7257   -0.5406 O   0  0  0  0  0  0  0  0  0  0  0  0
   -2.0097    2.8510    0.2093 C   0  0  0  0  0  0  0  0  0  0  0  0
   -1.7100    2.7178    1.6867 C   0  0  0  0  0  0  0  0  0  0  0  0
   -1.3420   -0.4753    0.5991 O   0  0  0  0  0  0  0  0  0  0  0  0
   -1.8663   -1.6587    1.2289 C   0  0  0  0  0  0  0  0  0  0  0  0
   -2.0497   -2.8033    0.2526 C   0  0  0  0  0  0  0  0  0  0  0  0
    3.5965    0.6485   -1.8887 H   0  0  0  0  0  0  0  0  0  0  0  0
    4.7732    1.1928   -0.6907 H   0  0  0  0  0  0  0  0  0  0  0  0
    5.3100    0.2582   -2.0969 H   0  0  0  0  0  0  0  0  0  0  0  0
    5.2527   -1.2078   -0.0966 H   0  0  0  0  0  0  0  0  0  0  0  0
    4.0031   -1.7139   -1.2691 H   0  0  0  0  0  0  0  0  0  0  0  0
    0.6348    0.7066    2.7225 H   0  0  0  0  0  0  0  0  0  0  0  0
    0.5868   -0.8837    3.5331 H   0  0  0  0  0  0  0  0  0  0  0  0
    2.4345    0.5119    4.4531 H   0  0  0  0  0  0  0  0  0  0  0  0
    3.0982   -0.8887    3.5871 H   0  0  0  0  0  0  0  0  0  0  0  0
    3.1052    0.7075    2.8251 H   0  0  0  0  0  0  0  0  0  0  0  0
    0.6044   -0.2542   -3.2228 H   0  0  0  0  0  0  0  0  0  0  0  0
    0.4267    0.7901   -1.7644 H   0  0  0  0  0  0  0  0  0  0  0  0
   -1.4947    3.7063   -0.2300 H   0  0  0  0  0  0  0  0  0  0  0  0
   -3.0880    2.9289    0.0369 H   0  0  0  0  0  0  0  0  0  0  0  0
   -2.2187    1.8431    2.0906 H   0  0  0  0  0  0  0  0  0  0  0  0
   -0.6381    2.6117    1.8368 H   0  0  0  0  0  0  0  0  0  0  0  0
   -2.0590    3.6043    2.2064 H   0  0  0  0  0  0  0  0  0  0  0  0
   -1.1279   -1.9022    1.9931 H   0  0  0  0  0  0  0  0  0  0  0  0
   -2.8219   -1.3989    1.6951 H   0  0  0  0  0  0  0  0  0  0  0  0
   -1.1122   -3.0379   -0.2465 H   0  0  0  0  0  0  0  0  0  0  0  0
   -2.3960   -3.6785    0.7931 H   0  0  0  0  0  0  0  0  0  0  0  0
   -2.7936   -2.5363   -0.4984 H   0  0  0  0  0  0  0  0  0  0  0  0
  1  2  1  0  0  0  0
  2  3  1  0  0  0  0
  3  4  1  0  0  0  0
  4  5  2  0  0  0  0
  4  6  2  0  0  0  0
  6  7  1  0  0  0  0
  7  8  1  0  0  0  0
  4  9  1  0  0  0  0
  9 10  1  0  0  0  0
 10 11  1  0  0  0  0
 11 12  1  0  0  0  0
 12 13  2  0  0  0  0
 12 14  2  0  0  0  0
 14 15  1  0  0  0  0
 15 16  1  0  0  0  0
 12 17  1  0  0  0  0
 17 18  1  0  0  0  0
 18 19  1  0  0  0  0
  1 20  1  0  0  0  0
  1 21  1  0  0  0  0
  1 22  1  0  0  0  0
  2 23  1  0  0  0  0
  2 24  1  0  0  0  0
  7 25  1  0  0  0  0
  7 26  1  0  0  0  0
  8 27  1  0  0  0  0
  8 28  1  0  0  0  0
  8 29  1  0  0  0  0
 10 30  1  0  0  0  0
 10 31  1  0  0  0  0
 15 32  1  0  0  0  0
 15 33  1  0  0  0  0
 16 34  1  0  0  0  0
 16 35  1  0  0  0  0
 16 36  1  0  0  0  0
 18 37  1  0  0  0  0
 18 38  1  0  0  0  0
 19 39  1  0  0  0  0
 19 40  1  0  0  0  0
 19 41  1  0  0  0  0
M  END
