 xtb: 6.7.1 (edcfbbe)
          04092505203D

 41 40  0     0  0            999 V2000
    4.2853    0.6380   -2.3191 C   0  0  0  0  0  0  0  0  0  0  0  0
    3.0555   -0.2326   -2.4667 C   0  0  0  0  0  0  0  0  0  0  0  0
    2.6860   -0.8461   -1.2143 O   0  0  0  0  0  0  0  0  0  0  0  0
    2.0822   -0.0225   -0.0078 P   0  0  0  0  0  0  0  0  0  0  0  0
    1.0811    1.6009   -0.5033 S   0  0  0  0  0  0  0  0  0  0  0  0
    3.3638    0.3125    0.8701 O   0  0  0  0  0  0  0  0  0  0  0  0
    3.3452    1.2859    1.9269 C   0  0  0  0  0  0  0  0  0  0  0  0
    2.4799    0.8417    3.0887 C   0  0  0  0  0  0  0  0  0  0  0  0
    1.2406   -1.6349    1.0673 S   0  0  0  0  0  0  0  0  0  0  0  0
    0.1961   -2.4043   -0.2189 C   0  0  0  0  0  0  0  0  0  0  0  0
   -0.5741   -1.2313   -1.3637 S   0  0  0  0  0  0  0  0  0  0  0  0
   -1.9165   -0.2556   -0.0476 P   0  0  0  0  0  0  0  0  0  0  0  0
   -1.4220    0.3973    1.7367 S   0  0  0  0  0  0  0  0  0  0  0  0
   -2.9983   -1.4143   -0.0266 O   0  0  0  0  0  0  0  0  0  0  0  0
   -4.0412   -1.4828    0.9666 C   0  0  0  0  0  0  0  0  0  0  0  0
   -5.0436   -0.3589    0.8102 C   0  0  0  0  0  0  0  0  0  0  0  0
   -2.5595    0.8290   -1.0072 O   0  0  0  0  0  0  0  0  0  0  0  0
   -2.2596    2.2365   -0.9919 C   0  0  0  0  0  0  0  0  0  0  0  0
   -3.5333    2.9983   -1.2966 C   0  0  0  0  0  0  0  0  0  0  0  0
    4.0598    1.4884   -1.6766 H   0  0  0  0  0  0  0  0  0  0  0  0
    5.0970    0.0683   -1.8746 H   0  0  0  0  0  0  0  0  0  0  0  0
    4.5886    1.0030   -3.2952 H   0  0  0  0  0  0  0  0  0  0  0  0
    3.2328   -1.0801   -3.1297 H   0  0  0  0  0  0  0  0  0  0  0  0
    2.2045    0.3526   -2.8300 H   0  0  0  0  0  0  0  0  0  0  0  0
    4.3927    1.3804    2.2156 H   0  0  0  0  0  0  0  0  0  0  0  0
    2.9816    2.2349    1.5187 H   0  0  0  0  0  0  0  0  0  0  0  0
    2.7836   -0.1441    3.4323 H   0  0  0  0  0  0  0  0  0  0  0  0
    2.5708    1.5537    3.9026 H   0  0  0  0  0  0  0  0  0  0  0  0
    1.4337    0.7952    2.7821 H   0  0  0  0  0  0  0  0  0  0  0  0
   -0.5698   -2.9712    0.3070 H   0  0  0  0  0  0  0  0  0  0  0  0
    0.8159   -3.0545   -0.8322 H   0  0  0  0  0  0  0  0  0  0  0  0
   -4.4966   -2.4596    0.7985 H   0  0  0  0  0  0  0  0  0  0  0  0
   -3.5778   -1.4494    1.9579 H   0  0  0  0  0  0  0  0  0  0  0  0
   -5.8676   -0.5112    1.5003 H   0  0  0  0  0  0  0  0  0  0  0  0
   -4.5647    0.5932    1.0361 H   0  0  0  0  0  0  0  0  0  0  0  0
   -5.4215   -0.3314   -0.2085 H   0  0  0  0  0  0  0  0  0  0  0  0
   -1.8534    2.5024   -0.0098 H   0  0  0  0  0  0  0  0  0  0  0  0
   -1.4897    2.4224   -1.7449 H   0  0  0  0  0  0  0  0  0  0  0  0
   -4.2717    2.8291   -0.5176 H   0  0  0  0  0  0  0  0  0  0  0  0
   -3.3049    4.0577   -1.3489 H   0  0  0  0  0  0  0  0  0  0  0  0
   -3.9405    2.6691   -2.2481 H   0  0  0  0  0  0  0  0  0  0  0  0
  1  2  1  0  0  0  0
  2  3  1  0  0  0  0
  3  4  2  0  0  0  0
  4  5  2  0  0  0  0
  4  6  2  0  0  0  0
  6  7  1  0  0  0  0
  7  8  1  0  0  0  0
  4  9  1  0  0  0  0
  9 10  1  0  0  0  0
 10 11  1  0  0  0  0
 11 12  1  0  0  0  0
 12 13  2  0  0  0  0
 12 14  2  0  0  0  0
 14 15  1  0  0  0  0
 15 16  1  0  0  0  0
 12 17  2  0  0  0  0
 17 18  1  0  0  0  0
 18 19  1  0  0  0  0
  1 20  1  0  0  0  0
  1 21  1  0  0  0  0
  1 22  1  0  0  0  0
  2 23  1  0  0  0  0
  2 24  1  0  0  0  0
  7 25  1  0  0  0  0
  7 26  1  0  0  0  0
  8 27  1  0  0  0  0
  8 28  1  0  0  0  0
  8 29  1  0  0  0  0
 10 30  1  0  0  0  0
 10 31  1  0  0  0  0
 15 32  1  0  0  0  0
 15 33  1  0  0  0  0
 16 34  1  0  0  0  0
 16 35  1  0  0  0  0
 16 36  1  0  0  0  0
 18 37  1  0  0  0  0
 18 38  1  0  0  0  0
 19 39  1  0  0  0  0
 19 40  1  0  0  0  0
 19 41  1  0  0  0  0
M  END
