 xtb: 6.7.1 (edcfbbe)
          04092505213D

 41 40  0     0  0            999 V2000
    2.2393   -3.1922   -0.9157 C   0  0  0  0  0  0  0  0  0  0  0  0
    2.9443   -2.1840   -1.7996 C   0  0  0  0  0  0  0  0  0  0  0  0
    3.4443   -1.0465   -1.0570 O   0  0  0  0  0  0  0  0  0  0  0  0
    2.5549    0.0123   -0.2807 P   0  0  0  0  0  0  0  0  0  0  0  0
    3.6056    1.6105    0.1187 S   0  0  0  0  0  0  0  0  0  0  0  0
    1.9302   -0.7202    0.9967 O   0  0  0  0  0  0  0  0  0  0  0  0
    2.5717   -0.6885    2.2895 C   0  0  0  0  0  0  0  0  0  0  0  0
    1.9667    0.3829    3.1738 C   0  0  0  0  0  0  0  0  0  0  0  0
    0.8483    0.2438   -1.4952 S   0  0  0  0  0  0  0  0  0  0  0  0
    0.1967    1.7026   -0.6427 C   0  0  0  0  0  0  0  0  0  0  0  0
   -0.6172    1.3057    0.9231 S   0  0  0  0  0  0  0  0  0  0  0  0
   -2.1866    0.1715    0.0695 P   0  0  0  0  0  0  0  0  0  0  0  0
   -2.9064    0.8448   -1.6324 S   0  0  0  0  0  0  0  0  0  0  0  0
   -3.1979   -0.0342    1.2749 O   0  0  0  0  0  0  0  0  0  0  0  0
   -3.7227    1.0036    2.1227 C   0  0  0  0  0  0  0  0  0  0  0  0
   -4.3592    2.1364    1.3442 C   0  0  0  0  0  0  0  0  0  0  0  0
   -1.5582   -1.2816   -0.0133 O   0  0  0  0  0  0  0  0  0  0  0  0
   -1.9102   -2.2133   -1.0536 C   0  0  0  0  0  0  0  0  0  0  0  0
   -3.3027   -2.7680   -0.8389 C   0  0  0  0  0  0  0  0  0  0  0  0
    1.3497   -2.7481   -0.4733 H   0  0  0  0  0  0  0  0  0  0  0  0
    1.9494   -4.0477   -1.5179 H   0  0  0  0  0  0  0  0  0  0  0  0
    2.9010   -3.5230   -0.1191 H   0  0  0  0  0  0  0  0  0  0  0  0
    2.2765   -1.8146   -2.5824 H   0  0  0  0  0  0  0  0  0  0  0  0
    3.8447   -2.6040   -2.2509 H   0  0  0  0  0  0  0  0  0  0  0  0
    2.4061   -1.6849    2.7027 H   0  0  0  0  0  0  0  0  0  0  0  0
    3.6440   -0.5179    2.1533 H   0  0  0  0  0  0  0  0  0  0  0  0
    2.4301    0.3381    4.1541 H   0  0  0  0  0  0  0  0  0  0  0  0
    2.1411    1.3668    2.7436 H   0  0  0  0  0  0  0  0  0  0  0  0
    0.8955    0.2310    3.2704 H   0  0  0  0  0  0  0  0  0  0  0  0
   -0.5271    2.1558   -1.3205 H   0  0  0  0  0  0  0  0  0  0  0  0
    1.0159    2.3862   -0.4169 H   0  0  0  0  0  0  0  0  0  0  0  0
   -4.4566    0.4823    2.7401 H   0  0  0  0  0  0  0  0  0  0  0  0
   -2.9078    1.3760    2.7498 H   0  0  0  0  0  0  0  0  0  0  0  0
   -5.1198    1.7529    0.6681 H   0  0  0  0  0  0  0  0  0  0  0  0
   -4.8145    2.8376    2.0361 H   0  0  0  0  0  0  0  0  0  0  0  0
   -3.6060    2.6583    0.7554 H   0  0  0  0  0  0  0  0  0  0  0  0
   -1.8372   -1.7050   -2.0208 H   0  0  0  0  0  0  0  0  0  0  0  0
   -1.1486   -2.9911   -0.9874 H   0  0  0  0  0  0  0  0  0  0  0  0
   -3.5240   -3.5012   -1.6079 H   0  0  0  0  0  0  0  0  0  0  0  0
   -3.3762   -3.2319    0.1409 H   0  0  0  0  0  0  0  0  0  0  0  0
   -4.0300   -1.9587   -0.8987 H   0  0  0  0  0  0  0  0  0  0  0  0
  1  2  1  0  0  0  0
  2  3  1  0  0  0  0
  3  4  2  0  0  0  0
  4  5  2  0  0  0  0
  4  6  1  0  0  0  0
  6  7  1  0  0  0  0
  7  8  1  0  0  0  0
  4  9  1  0  0  0  0
  9 10  1  0  0  0  0
 10 11  1  0  0  0  0
 11 12  1  0  0  0  0
 12 13  2  0  0  0  0
 12 14  2  0  0  0  0
 14 15  1  0  0  0  0
 15 16  1  0  0  0  0
 12 17  2  0  0  0  0
 17 18  1  0  0  0  0
 18 19  1  0  0  0  0
  1 20  1  0  0  0  0
  1 21  1  0  0  0  0
  1 22  1  0  0  0  0
  2 23  1  0  0  0  0
  2 24  1  0  0  0  0
  7 25  1  0  0  0  0
  7 26  1  0  0  0  0
  8 27  1  0  0  0  0
  8 28  1  0  0  0  0
  8 29  1  0  0  0  0
 10 30  1  0  0  0  0
 10 31  1  0  0  0  0
 15 32  1  0  0  0  0
 15 33  1  0  0  0  0
 16 34  1  0  0  0  0
 16 35  1  0  0  0  0
 16 36  1  0  0  0  0
 18 37  1  0  0  0  0
 18 38  1  0  0  0  0
 19 39  1  0  0  0  0
 19 40  1  0  0  0  0
 19 41  1  0  0  0  0
M  END
