 xtb: 6.7.1 (edcfbbe)
          04092505213D

 41 40  0     0  0            999 V2000
    2.8036   -0.8548   -2.7197 C   0  0  0  0  0  0  0  0  0  0  0  0
    1.7192    0.0257   -2.1386 C   0  0  0  0  0  0  0  0  0  0  0  0
    1.1441   -0.5676   -0.9601 O   0  0  0  0  0  0  0  0  0  0  0  0
    1.9552   -0.6332    0.4125 P   0  0  0  0  0  0  0  0  0  0  0  0
    3.2625    0.8121    0.6618 S   0  0  0  0  0  0  0  0  0  0  0  0
    2.5183   -2.1149    0.3285 O   0  0  0  0  0  0  0  0  0  0  0  0
    2.9458   -2.9211    1.4441 C   0  0  0  0  0  0  0  0  0  0  0  0
    3.9304   -2.2100    2.3485 C   0  0  0  0  0  0  0  0  0  0  0  0
    0.3979   -0.8259    1.8221 S   0  0  0  0  0  0  0  0  0  0  0  0
   -0.0798    0.9205    1.9767 C   0  0  0  0  0  0  0  0  0  0  0  0
   -0.1255    1.8345    0.4068 S   0  0  0  0  0  0  0  0  0  0  0  0
   -1.7742    0.9304   -0.5474 P   0  0  0  0  0  0  0  0  0  0  0  0
   -1.8662    1.1353   -2.4924 S   0  0  0  0  0  0  0  0  0  0  0  0
   -2.9052    1.6584    0.2961 O   0  0  0  0  0  0  0  0  0  0  0  0
   -4.3013    1.4490   -0.0160 C   0  0  0  0  0  0  0  0  0  0  0  0
   -5.0937    2.5730    0.6182 C   0  0  0  0  0  0  0  0  0  0  0  0
   -1.9095   -0.5709   -0.0371 O   0  0  0  0  0  0  0  0  0  0  0  0
   -1.7124   -1.7433   -0.8443 C   0  0  0  0  0  0  0  0  0  0  0  0
   -2.9846   -2.5667   -0.8285 C   0  0  0  0  0  0  0  0  0  0  0  0
    2.4107   -1.8462   -2.9280 H   0  0  0  0  0  0  0  0  0  0  0  0
    3.1753   -0.4095   -3.6371 H   0  0  0  0  0  0  0  0  0  0  0  0
    3.6223   -0.9412   -2.0059 H   0  0  0  0  0  0  0  0  0  0  0  0
    0.8765    0.1476   -2.8227 H   0  0  0  0  0  0  0  0  0  0  0  0
    2.1147    1.0132   -1.8747 H   0  0  0  0  0  0  0  0  0  0  0  0
    2.0560   -3.2223    2.0038 H   0  0  0  0  0  0  0  0  0  0  0  0
    3.3985   -3.7933    0.9688 H   0  0  0  0  0  0  0  0  0  0  0  0
    4.7837   -1.8524    1.7771 H   0  0  0  0  0  0  0  0  0  0  0  0
    3.4538   -1.3545    2.8250 H   0  0  0  0  0  0  0  0  0  0  0  0
    4.2739   -2.8967    3.1155 H   0  0  0  0  0  0  0  0  0  0  0  0
    0.6594    1.4428    2.5818 H   0  0  0  0  0  0  0  0  0  0  0  0
   -1.0602    0.9346    2.4463 H   0  0  0  0  0  0  0  0  0  0  0  0
   -4.4156    1.4418   -1.1055 H   0  0  0  0  0  0  0  0  0  0  0  0
   -4.5953    0.4749    0.3827 H   0  0  0  0  0  0  0  0  0  0  0  0
   -6.1481    2.4297    0.4055 H   0  0  0  0  0  0  0  0  0  0  0  0
   -4.9393    2.5768    1.6932 H   0  0  0  0  0  0  0  0  0  0  0  0
   -4.7725    3.5290    0.2144 H   0  0  0  0  0  0  0  0  0  0  0  0
   -1.4538   -1.4350   -1.8623 H   0  0  0  0  0  0  0  0  0  0  0  0
   -0.8744   -2.2901   -0.4054 H   0  0  0  0  0  0  0  0  0  0  0  0
   -2.8173   -3.4871   -1.3782 H   0  0  0  0  0  0  0  0  0  0  0  0
   -3.2611   -2.8037    0.1950 H   0  0  0  0  0  0  0  0  0  0  0  0
   -3.7936   -2.0130   -1.2993 H   0  0  0  0  0  0  0  0  0  0  0  0
  1  2  1  0  0  0  0
  2  3  1  0  0  0  0
  3  4  1  0  0  0  0
  4  5  2  0  0  0  0
  4  6  2  0  0  0  0
  6  7  1  0  0  0  0
  7  8  1  0  0  0  0
  4  9  1  0  0  0  0
  9 10  1  0  0  0  0
 10 11  1  0  0  0  0
 11 12  1  0  0  0  0
 12 13  2  0  0  0  0
 12 14  2  0  0  0  0
 14 15  1  0  0  0  0
 15 16  1  0  0  0  0
 12 17  2  0  0  0  0
 17 18  1  0  0  0  0
 18 19  1  0  0  0  0
  1 20  1  0  0  0  0
  1 21  1  0  0  0  0
  1 22  1  0  0  0  0
  2 23  1  0  0  0  0
  2 24  1  0  0  0  0
  7 25  1  0  0  0  0
  7 26  1  0  0  0  0
  8 27  1  0  0  0  0
  8 28  1  0  0  0  0
  8 29  1  0  0  0  0
 10 30  1  0  0  0  0
 10 31  1  0  0  0  0
 15 32  1  0  0  0  0
 15 33  1  0  0  0  0
 16 34  1  0  0  0  0
 16 35  1  0  0  0  0
 16 36  1  0  0  0  0
 18 37  1  0  0  0  0
 18 38  1  0  0  0  0
 19 39  1  0  0  0  0
 19 40  1  0  0  0  0
 19 41  1  0  0  0  0
M  END
