 xtb: 6.7.1 (edcfbbe)
          04092505213D

 41 40  0     0  0            999 V2000
    1.5789   -0.6906   -3.0227 C   0  0  0  0  0  0  0  0  0  0  0  0
    2.3582   -1.7023   -2.2085 C   0  0  0  0  0  0  0  0  0  0  0  0
    3.1320   -1.0945   -1.1576 O   0  0  0  0  0  0  0  0  0  0  0  0
    2.5586   -0.1620   -0.0064 P   0  0  0  0  0  0  0  0  0  0  0  0
    2.1647    1.7139   -0.4093 S   0  0  0  0  0  0  0  0  0  0  0  0
    3.7273   -0.2103    1.0496 O   0  0  0  0  0  0  0  0  0  0  0  0
    4.3526   -1.4230    1.5448 C   0  0  0  0  0  0  0  0  0  0  0  0
    3.8080   -1.7898    2.9116 C   0  0  0  0  0  0  0  0  0  0  0  0
    0.9424   -1.3168    0.7614 S   0  0  0  0  0  0  0  0  0  0  0  0
    0.1355   -0.0209    1.7545 C   0  0  0  0  0  0  0  0  0  0  0  0
   -1.6540   -0.2365    1.7763 S   0  0  0  0  0  0  0  0  0  0  0  0
   -2.0484    0.7537   -0.0743 P   0  0  0  0  0  0  0  0  0  0  0  0
   -1.4049    2.5989   -0.1768 S   0  0  0  0  0  0  0  0  0  0  0  0
   -3.6135    0.5547   -0.2307 O   0  0  0  0  0  0  0  0  0  0  0  0
   -4.5373    1.2714    0.6146 C   0  0  0  0  0  0  0  0  0  0  0  0
   -5.9097    1.1865   -0.0219 C   0  0  0  0  0  0  0  0  0  0  0  0
   -1.4502   -0.1683   -1.1998 O   0  0  0  0  0  0  0  0  0  0  0  0
   -1.8960   -1.5361   -1.4156 C   0  0  0  0  0  0  0  0  0  0  0  0
   -2.9090   -1.5905   -2.5389 C   0  0  0  0  0  0  0  0  0  0  0  0
    1.0837   -1.1934   -3.8476 H   0  0  0  0  0  0  0  0  0  0  0  0
    0.8293   -0.1952   -2.4058 H   0  0  0  0  0  0  0  0  0  0  0  0
    2.2467    0.0723   -3.4165 H   0  0  0  0  0  0  0  0  0  0  0  0
    3.1097   -2.2071   -2.8185 H   0  0  0  0  0  0  0  0  0  0  0  0
    1.6905   -2.4406   -1.7553 H   0  0  0  0  0  0  0  0  0  0  0  0
    4.1984   -2.2262    0.8225 H   0  0  0  0  0  0  0  0  0  0  0  0
    5.4135   -1.1738    1.5963 H   0  0  0  0  0  0  0  0  0  0  0  0
    2.7676   -2.0979    2.8439 H   0  0  0  0  0  0  0  0  0  0  0  0
    4.3922   -2.6115    3.3137 H   0  0  0  0  0  0  0  0  0  0  0  0
    3.8841   -0.9378    3.5820 H   0  0  0  0  0  0  0  0  0  0  0  0
    0.3815    0.9544    1.3207 H   0  0  0  0  0  0  0  0  0  0  0  0
    0.4757   -0.0935    2.7842 H   0  0  0  0  0  0  0  0  0  0  0  0
   -4.5234    0.8046    1.6031 H   0  0  0  0  0  0  0  0  0  0  0  0
   -4.1955    2.3078    0.7027 H   0  0  0  0  0  0  0  0  0  0  0  0
   -5.8954    1.6508   -1.0041 H   0  0  0  0  0  0  0  0  0  0  0  0
   -6.2081    0.1474   -0.1249 H   0  0  0  0  0  0  0  0  0  0  0  0
   -6.6255    1.7047    0.6074 H   0  0  0  0  0  0  0  0  0  0  0  0
   -0.9869   -2.0845   -1.6677 H   0  0  0  0  0  0  0  0  0  0  0  0
   -2.3118   -1.9242   -0.4822 H   0  0  0  0  0  0  0  0  0  0  0  0
   -2.4882   -1.1575   -3.4422 H   0  0  0  0  0  0  0  0  0  0  0  0
   -3.1742   -2.6263   -2.7257 H   0  0  0  0  0  0  0  0  0  0  0  0
   -3.8014   -1.0333   -2.2675 H   0  0  0  0  0  0  0  0  0  0  0  0
  1  2  1  0  0  0  0
  2  3  1  0  0  0  0
  3  4  2  0  0  0  0
  4  5  2  0  0  0  0
  4  6  2  0  0  0  0
  6  7  1  0  0  0  0
  7  8  1  0  0  0  0
  4  9  1  0  0  0  0
  9 10  1  0  0  0  0
 10 11  1  0  0  0  0
 11 12  1  0  0  0  0
 12 13  2  0  0  0  0
 12 14  2  0  0  0  0
 14 15  1  0  0  0  0
 15 16  1  0  0  0  0
 12 17  2  0  0  0  0
 17 18  1  0  0  0  0
 18 19  1  0  0  0  0
  1 20  1  0  0  0  0
  1 21  1  0  0  0  0
  1 22  1  0  0  0  0
  2 23  1  0  0  0  0
  2 24  1  0  0  0  0
  7 25  1  0  0  0  0
  7 26  1  0  0  0  0
  8 27  1  0  0  0  0
  8 28  1  0  0  0  0
  8 29  1  0  0  0  0
 10 30  1  0  0  0  0
 10 31  1  0  0  0  0
 15 32  1  0  0  0  0
 15 33  1  0  0  0  0
 16 34  1  0  0  0  0
 16 35  1  0  0  0  0
 16 36  1  0  0  0  0
 18 37  1  0  0  0  0
 18 38  1  0  0  0  0
 19 39  1  0  0  0  0
 19 40  1  0  0  0  0
 19 41  1  0  0  0  0
M  END
