 xtb: 6.7.1 (edcfbbe)
          04092505213D

 41 40  0     0  0            999 V2000
    2.7970    0.5045   -2.8884 C   0  0  0  0  0  0  0  0  0  0  0  0
    1.9605   -0.7253   -2.6059 C   0  0  0  0  0  0  0  0  0  0  0  0
    1.2805   -0.6413   -1.3330 O   0  0  0  0  0  0  0  0  0  0  0  0
    2.0346   -0.5106    0.0586 P   0  0  0  0  0  0  0  0  0  0  0  0
    2.5834    1.2981    0.6040 S   0  0  0  0  0  0  0  0  0  0  0  0
    3.1993   -1.5726   -0.1551 O   0  0  0  0  0  0  0  0  0  0  0  0
    3.9620   -2.2183    0.8825 C   0  0  0  0  0  0  0  0  0  0  0  0
    4.5462   -1.2515    1.8904 C   0  0  0  0  0  0  0  0  0  0  0  0
    0.7075   -1.4853    1.3848 S   0  0  0  0  0  0  0  0  0  0  0  0
    0.0199   -0.0528    2.2660 C   0  0  0  0  0  0  0  0  0  0  0  0
   -1.7796    0.0810    2.1068 S   0  0  0  0  0  0  0  0  0  0  0  0
   -1.9463    0.5102    0.0578 P   0  0  0  0  0  0  0  0  0  0  0  0
   -0.7225    1.8348   -0.7259 S   0  0  0  0  0  0  0  0  0  0  0  0
   -3.4815    0.8938   -0.0872 O   0  0  0  0  0  0  0  0  0  0  0  0
   -3.9768    2.1968    0.2802 C   0  0  0  0  0  0  0  0  0  0  0  0
   -5.2967    2.4142   -0.4321 C   0  0  0  0  0  0  0  0  0  0  0  0
   -1.8971   -0.9430   -0.5622 O   0  0  0  0  0  0  0  0  0  0  0  0
   -1.8159   -1.1714   -1.9838 C   0  0  0  0  0  0  0  0  0  0  0  0
   -3.1897   -1.1645   -2.6207 C   0  0  0  0  0  0  0  0  0  0  0  0
    2.1864    1.4013   -2.7980 H   0  0  0  0  0  0  0  0  0  0  0  0
    3.6147    0.5732   -2.1717 H   0  0  0  0  0  0  0  0  0  0  0  0
    3.2050    0.4449   -3.8924 H   0  0  0  0  0  0  0  0  0  0  0  0
    2.5750   -1.6279   -2.6069 H   0  0  0  0  0  0  0  0  0  0  0  0
    1.1459   -0.8265   -3.3253 H   0  0  0  0  0  0  0  0  0  0  0  0
    3.3095   -2.9434    1.3761 H   0  0  0  0  0  0  0  0  0  0  0  0
    4.7469   -2.7401    0.3316 H   0  0  0  0  0  0  0  0  0  0  0  0
    5.1356   -0.4870    1.3899 H   0  0  0  0  0  0  0  0  0  0  0  0
    3.7507   -0.7592    2.4472 H   0  0  0  0  0  0  0  0  0  0  0  0
    5.1787   -1.7972    2.5831 H   0  0  0  0  0  0  0  0  0  0  0  0
    0.5055    0.8534    1.8885 H   0  0  0  0  0  0  0  0  0  0  0  0
    0.2079   -0.1833    3.3288 H   0  0  0  0  0  0  0  0  0  0  0  0
   -4.1010    2.2171    1.3659 H   0  0  0  0  0  0  0  0  0  0  0  0
   -3.2337    2.9475   -0.0103 H   0  0  0  0  0  0  0  0  0  0  0  0
   -5.9910    1.6208   -0.1717 H   0  0  0  0  0  0  0  0  0  0  0  0
   -5.7107    3.3700   -0.1282 H   0  0  0  0  0  0  0  0  0  0  0  0
   -5.1485    2.4157   -1.5084 H   0  0  0  0  0  0  0  0  0  0  0  0
   -1.1726   -0.4002   -2.4208 H   0  0  0  0  0  0  0  0  0  0  0  0
   -1.3331   -2.1465   -2.0706 H   0  0  0  0  0  0  0  0  0  0  0  0
   -3.6354   -0.1758   -2.5390 H   0  0  0  0  0  0  0  0  0  0  0  0
   -3.0984   -1.4299   -3.6694 H   0  0  0  0  0  0  0  0  0  0  0  0
   -3.8340   -1.8816   -2.1199 H   0  0  0  0  0  0  0  0  0  0  0  0
  1  2  1  0  0  0  0
  2  3  1  0  0  0  0
  3  4  2  0  0  0  0
  4  5  2  0  0  0  0
  4  6  2  0  0  0  0
  6  7  1  0  0  0  0
  7  8  1  0  0  0  0
  4  9  1  0  0  0  0
  9 10  1  0  0  0  0
 10 11  1  0  0  0  0
 11 12  1  0  0  0  0
 12 13  2  0  0  0  0
 12 14  2  0  0  0  0
 14 15  1  0  0  0  0
 15 16  1  0  0  0  0
 12 17  2  0  0  0  0
 17 18  1  0  0  0  0
 18 19  1  0  0  0  0
  1 20  1  0  0  0  0
  1 21  1  0  0  0  0
  1 22  1  0  0  0  0
  2 23  1  0  0  0  0
  2 24  1  0  0  0  0
  7 25  1  0  0  0  0
  7 26  1  0  0  0  0
  8 27  1  0  0  0  0
  8 28  1  0  0  0  0
  8 29  1  0  0  0  0
 10 30  1  0  0  0  0
 10 31  1  0  0  0  0
 15 32  1  0  0  0  0
 15 33  1  0  0  0  0
 16 34  1  0  0  0  0
 16 35  1  0  0  0  0
 16 36  1  0  0  0  0
 18 37  1  0  0  0  0
 18 38  1  0  0  0  0
 19 39  1  0  0  0  0
 19 40  1  0  0  0  0
 19 41  1  0  0  0  0
M  END
