 xtb: 6.7.1 (edcfbbe)
          04092505203D

 41 40  0     0  0            999 V2000
    5.3938   -1.9825   -1.4259 C   0  0  0  0  0  0  0  0  0  0  0  0
    4.3282   -0.9062   -1.4763 C   0  0  0  0  0  0  0  0  0  0  0  0
    3.2934   -1.2629   -0.5379 O   0  0  0  0  0  0  0  0  0  0  0  0
    2.2761   -0.1892    0.0345 P   0  0  0  0  0  0  0  0  0  0  0  0
    3.0813    1.4785    0.6871 S   0  0  0  0  0  0  0  0  0  0  0  0
    1.4660   -1.0410    1.0916 O   0  0  0  0  0  0  0  0  0  0  0  0
    1.7907   -1.0215    2.4997 C   0  0  0  0  0  0  0  0  0  0  0  0
    3.0984   -1.7324    2.7726 C   0  0  0  0  0  0  0  0  0  0  0  0
    0.8516    0.0174   -1.5191 S   0  0  0  0  0  0  0  0  0  0  0  0
    0.0507    1.4955   -0.8351 C   0  0  0  0  0  0  0  0  0  0  0  0
   -0.9649    1.1320    0.6118 S   0  0  0  0  0  0  0  0  0  0  0  0
   -2.5795    0.2258   -0.4578 P   0  0  0  0  0  0  0  0  0  0  0  0
   -2.9533    0.9859   -2.2212 S   0  0  0  0  0  0  0  0  0  0  0  0
   -3.7988    0.2623    0.5596 O   0  0  0  0  0  0  0  0  0  0  0  0
   -4.7079    1.3742    0.6360 C   0  0  0  0  0  0  0  0  0  0  0  0
   -4.0445    2.6263    1.1724 C   0  0  0  0  0  0  0  0  0  0  0  0
   -2.2548   -1.3111   -0.5716 O   0  0  0  0  0  0  0  0  0  0  0  0
   -1.6756   -2.1882    0.4241 C   0  0  0  0  0  0  0  0  0  0  0  0
   -2.3283   -2.0619    1.7834 C   0  0  0  0  0  0  0  0  0  0  0  0
    5.8356   -2.0277   -0.4345 H   0  0  0  0  0  0  0  0  0  0  0  0
    4.9551   -2.9478   -1.6610 H   0  0  0  0  0  0  0  0  0  0  0  0
    6.1667   -1.7519   -2.1517 H   0  0  0  0  0  0  0  0  0  0  0  0
    3.8776   -0.8356   -2.4700 H   0  0  0  0  0  0  0  0  0  0  0  0
    4.7320    0.0728   -1.1965 H   0  0  0  0  0  0  0  0  0  0  0  0
    1.8357    0.0209    2.8300 H   0  0  0  0  0  0  0  0  0  0  0  0
    0.9453   -1.5236    2.9711 H   0  0  0  0  0  0  0  0  0  0  0  0
    3.2709   -1.7742    3.8434 H   0  0  0  0  0  0  0  0  0  0  0  0
    3.0700   -2.7407    2.3684 H   0  0  0  0  0  0  0  0  0  0  0  0
    3.9169   -1.1879    2.3030 H   0  0  0  0  0  0  0  0  0  0  0  0
   -0.5799    1.9042   -1.6258 H   0  0  0  0  0  0  0  0  0  0  0  0
    0.8152    2.2073   -0.5224 H   0  0  0  0  0  0  0  0  0  0  0  0
   -5.1179    1.5548   -0.3626 H   0  0  0  0  0  0  0  0  0  0  0  0
   -5.4955    1.0193    1.3022 H   0  0  0  0  0  0  0  0  0  0  0  0
   -3.5367    2.4157    2.1102 H   0  0  0  0  0  0  0  0  0  0  0  0
   -3.3163    2.9999    0.4543 H   0  0  0  0  0  0  0  0  0  0  0  0
   -4.7990    3.3893    1.3344 H   0  0  0  0  0  0  0  0  0  0  0  0
   -1.8257   -3.1802   -0.0054 H   0  0  0  0  0  0  0  0  0  0  0  0
   -0.6049   -1.9744    0.4801 H   0  0  0  0  0  0  0  0  0  0  0  0
   -2.1446   -1.0734    2.2007 H   0  0  0  0  0  0  0  0  0  0  0  0
   -3.4013   -2.2146    1.7012 H   0  0  0  0  0  0  0  0  0  0  0  0
   -1.9091   -2.8124    2.4468 H   0  0  0  0  0  0  0  0  0  0  0  0
  1  2  1  0  0  0  0
  2  3  1  0  0  0  0
  3  4  2  0  0  0  0
  4  5  2  0  0  0  0
  4  6  2  0  0  0  0
  6  7  1  0  0  0  0
  7  8  1  0  0  0  0
  4  9  1  0  0  0  0
  9 10  1  0  0  0  0
 10 11  1  0  0  0  0
 11 12  1  0  0  0  0
 12 13  2  0  0  0  0
 12 14  2  0  0  0  0
 14 15  1  0  0  0  0
 15 16  1  0  0  0  0
 12 17  2  0  0  0  0
 17 18  1  0  0  0  0
 18 19  1  0  0  0  0
  1 20  1  0  0  0  0
  1 21  1  0  0  0  0
  1 22  1  0  0  0  0
  2 23  1  0  0  0  0
  2 24  1  0  0  0  0
  7 25  1  0  0  0  0
  7 26  1  0  0  0  0
  8 27  1  0  0  0  0
  8 28  1  0  0  0  0
  8 29  1  0  0  0  0
 10 30  1  0  0  0  0
 10 31  1  0  0  0  0
 15 32  1  0  0  0  0
 15 33  1  0  0  0  0
 16 34  1  0  0  0  0
 16 35  1  0  0  0  0
 16 36  1  0  0  0  0
 18 37  1  0  0  0  0
 18 38  1  0  0  0  0
 19 39  1  0  0  0  0
 19 40  1  0  0  0  0
 19 41  1  0  0  0  0
M  END
