 xtb: 6.7.1 (edcfbbe)
          04092505203D

 41 40  0     0  0            999 V2000
    4.0836    1.9433   -1.6024 C   0  0  0  0  0  0  0  0  0  0  0  0
    4.4195    0.5407   -1.1384 C   0  0  0  0  0  0  0  0  0  0  0  0
    3.2425   -0.2695   -0.9651 O   0  0  0  0  0  0  0  0  0  0  0  0
    2.1820    0.0004    0.1847 P   0  0  0  0  0  0  0  0  0  0  0  0
    2.9388    0.5245    1.9189 S   0  0  0  0  0  0  0  0  0  0  0  0
    1.3334   -1.3368    0.1633 O   0  0  0  0  0  0  0  0  0  0  0  0
    1.6189   -2.4527    1.0265 C   0  0  0  0  0  0  0  0  0  0  0  0
    2.9499   -3.0942    0.6979 C   0  0  0  0  0  0  0  0  0  0  0  0
    0.7886    1.3134   -0.6883 S   0  0  0  0  0  0  0  0  0  0  0  0
   -0.0490    1.7896    0.8491 C   0  0  0  0  0  0  0  0  0  0  0  0
   -0.8973    0.4048    1.6706 S   0  0  0  0  0  0  0  0  0  0  0  0
   -2.1411   -0.2259    0.0877 P   0  0  0  0  0  0  0  0  0  0  0  0
   -1.5434   -1.4495   -1.3262 S   0  0  0  0  0  0  0  0  0  0  0  0
   -2.7566    1.1472   -0.4303 O   0  0  0  0  0  0  0  0  0  0  0  0
   -2.8737    1.5495   -1.8109 C   0  0  0  0  0  0  0  0  0  0  0  0
   -2.1549    2.8640   -2.0388 C   0  0  0  0  0  0  0  0  0  0  0  0
   -3.2324   -0.8522    1.0605 O   0  0  0  0  0  0  0  0  0  0  0  0
   -4.1972   -1.8202    0.6079 C   0  0  0  0  0  0  0  0  0  0  0  0
   -5.2080   -1.2042   -0.3384 C   0  0  0  0  0  0  0  0  0  0  0  0
    3.4460    1.9068   -2.4822 H   0  0  0  0  0  0  0  0  0  0  0  0
    3.5617    2.4825   -0.8130 H   0  0  0  0  0  0  0  0  0  0  0  0
    5.0012    2.4709   -1.8424 H   0  0  0  0  0  0  0  0  0  0  0  0
    4.9613    0.5690   -0.1875 H   0  0  0  0  0  0  0  0  0  0  0  0
    5.0020   -0.0030   -1.8834 H   0  0  0  0  0  0  0  0  0  0  0  0
    1.5985   -2.0995    2.0632 H   0  0  0  0  0  0  0  0  0  0  0  0
    0.7840   -3.1342    0.8526 H   0  0  0  0  0  0  0  0  0  0  0  0
    3.0794   -3.9852    1.3043 H   0  0  0  0  0  0  0  0  0  0  0  0
    2.9856   -3.3613   -0.3553 H   0  0  0  0  0  0  0  0  0  0  0  0
    3.7588   -2.3967    0.9139 H   0  0  0  0  0  0  0  0  0  0  0  0
   -0.7689    2.5636    0.5956 H   0  0  0  0  0  0  0  0  0  0  0  0
    0.6879    2.1516    1.5665 H   0  0  0  0  0  0  0  0  0  0  0  0
   -2.4635    0.7566   -2.4457 H   0  0  0  0  0  0  0  0  0  0  0  0
   -3.9446    1.6516   -2.0002 H   0  0  0  0  0  0  0  0  0  0  0  0
   -2.5208    3.6152   -1.3443 H   0  0  0  0  0  0  0  0  0  0  0  0
   -1.0815    2.7414   -1.9066 H   0  0  0  0  0  0  0  0  0  0  0  0
   -2.3476    3.1949   -3.0541 H   0  0  0  0  0  0  0  0  0  0  0  0
   -3.6634   -2.6417    0.1185 H   0  0  0  0  0  0  0  0  0  0  0  0
   -4.6646   -2.1755    1.5272 H   0  0  0  0  0  0  0  0  0  0  0  0
   -5.9809   -1.9320   -0.5643 H   0  0  0  0  0  0  0  0  0  0  0  0
   -5.6590   -0.3258    0.1160 H   0  0  0  0  0  0  0  0  0  0  0  0
   -4.7139   -0.9142   -1.2652 H   0  0  0  0  0  0  0  0  0  0  0  0
  1  2  1  0  0  0  0
  2  3  1  0  0  0  0
  3  4  2  0  0  0  0
  4  5  2  0  0  0  0
  4  6  2  0  0  0  0
  6  7  1  0  0  0  0
  7  8  1  0  0  0  0
  4  9  1  0  0  0  0
  9 10  1  0  0  0  0
 10 11  1  0  0  0  0
 11 12  1  0  0  0  0
 12 13  2  0  0  0  0
 12 14  2  0  0  0  0
 14 15  1  0  0  0  0
 15 16  1  0  0  0  0
 12 17  2  0  0  0  0
 17 18  1  0  0  0  0
 18 19  1  0  0  0  0
  1 20  1  0  0  0  0
  1 21  1  0  0  0  0
  1 22  1  0  0  0  0
  2 23  1  0  0  0  0
  2 24  1  0  0  0  0
  7 25  1  0  0  0  0
  7 26  1  0  0  0  0
  8 27  1  0  0  0  0
  8 28  1  0  0  0  0
  8 29  1  0  0  0  0
 10 30  1  0  0  0  0
 10 31  1  0  0  0  0
 15 32  1  0  0  0  0
 15 33  1  0  0  0  0
 16 34  1  0  0  0  0
 16 35  1  0  0  0  0
 16 36  1  0  0  0  0
 18 37  1  0  0  0  0
 18 38  1  0  0  0  0
 19 39  1  0  0  0  0
 19 40  1  0  0  0  0
 19 41  1  0  0  0  0
M  END
