 xtb: 6.7.1 (edcfbbe)
          04092505203D

 41 40  0     0  0            999 V2000
    3.0044   -0.5587   -2.6163 C   0  0  0  0  0  0  0  0  0  0  0  0
    3.2056    0.8021   -1.9859 C   0  0  0  0  0  0  0  0  0  0  0  0
    2.2187    1.0857   -0.9624 O   0  0  0  0  0  0  0  0  0  0  0  0
    2.0366    0.2994    0.3812 P   0  0  0  0  0  0  0  0  0  0  0  0
    1.0338    1.3156    1.7235 S   0  0  0  0  0  0  0  0  0  0  0  0
    3.5552    0.0298    0.7857 O   0  0  0  0  0  0  0  0  0  0  0  0
    3.8930   -0.6280    2.0216 C   0  0  0  0  0  0  0  0  0  0  0  0
    5.3928   -0.5214    2.2094 C   0  0  0  0  0  0  0  0  0  0  0  0
    1.2935   -1.6723    0.0168 S   0  0  0  0  0  0  0  0  0  0  0  0
   -0.0393   -1.7727    1.2446 C   0  0  0  0  0  0  0  0  0  0  0  0
   -1.6963   -1.9760    0.5278 S   0  0  0  0  0  0  0  0  0  0  0  0
   -2.0790   -0.0488   -0.2180 P   0  0  0  0  0  0  0  0  0  0  0  0
   -0.8245    0.7516   -1.5055 S   0  0  0  0  0  0  0  0  0  0  0  0
   -2.3311    0.7435    1.1252 O   0  0  0  0  0  0  0  0  0  0  0  0
   -2.3477    2.1828    1.1876 C   0  0  0  0  0  0  0  0  0  0  0  0
   -3.5258    2.7636    0.4368 C   0  0  0  0  0  0  0  0  0  0  0  0
   -3.5469   -0.2242   -0.7965 O   0  0  0  0  0  0  0  0  0  0  0  0
   -3.7969   -0.7995   -2.0946 C   0  0  0  0  0  0  0  0  0  0  0  0
   -5.1800   -0.3679   -2.5388 C   0  0  0  0  0  0  0  0  0  0  0  0
    3.6849   -0.6669   -3.4550 H   0  0  0  0  0  0  0  0  0  0  0  0
    3.2031   -1.3478   -1.8923 H   0  0  0  0  0  0  0  0  0  0  0  0
    1.9803   -0.6572   -2.9696 H   0  0  0  0  0  0  0  0  0  0  0  0
    3.0442    1.6052   -2.7066 H   0  0  0  0  0  0  0  0  0  0  0  0
    4.1966    0.8907   -1.5371 H   0  0  0  0  0  0  0  0  0  0  0  0
    3.3495   -0.1375    2.8360 H   0  0  0  0  0  0  0  0  0  0  0  0
    3.5724   -1.6717    1.9532 H   0  0  0  0  0  0  0  0  0  0  0  0
    5.9066   -1.0008    1.3815 H   0  0  0  0  0  0  0  0  0  0  0  0
    5.6897    0.5228    2.2525 H   0  0  0  0  0  0  0  0  0  0  0  0
    5.6700   -1.0111    3.1370 H   0  0  0  0  0  0  0  0  0  0  0  0
   -0.0185   -0.8699    1.8618 H   0  0  0  0  0  0  0  0  0  0  0  0
    0.1245   -2.6676    1.8389 H   0  0  0  0  0  0  0  0  0  0  0  0
   -2.3930    2.3942    2.2568 H   0  0  0  0  0  0  0  0  0  0  0  0
   -1.4008    2.5597    0.7868 H   0  0  0  0  0  0  0  0  0  0  0  0
   -3.4168    2.5652   -0.6289 H   0  0  0  0  0  0  0  0  0  0  0  0
   -4.4508    2.3135    0.7872 H   0  0  0  0  0  0  0  0  0  0  0  0
   -3.5586    3.8370    0.5955 H   0  0  0  0  0  0  0  0  0  0  0  0
   -3.0230   -0.4486   -2.7859 H   0  0  0  0  0  0  0  0  0  0  0  0
   -3.7288   -1.8865   -2.0019 H   0  0  0  0  0  0  0  0  0  0  0  0
   -5.9178   -0.6865   -1.8083 H   0  0  0  0  0  0  0  0  0  0  0  0
   -5.2241    0.7133   -2.6355 H   0  0  0  0  0  0  0  0  0  0  0  0
   -5.4027   -0.8225   -3.4984 H   0  0  0  0  0  0  0  0  0  0  0  0
  1  2  1  0  0  0  0
  2  3  1  0  0  0  0
  3  4  2  0  0  0  0
  4  5  2  0  0  0  0
  4  6  2  0  0  0  0
  6  7  1  0  0  0  0
  7  8  1  0  0  0  0
  4  9  1  0  0  0  0
  9 10  1  0  0  0  0
 10 11  1  0  0  0  0
 11 12  1  0  0  0  0
 12 13  2  0  0  0  0
 12 14  2  0  0  0  0
 14 15  1  0  0  0  0
 15 16  1  0  0  0  0
 12 17  2  0  0  0  0
 17 18  1  0  0  0  0
 18 19  1  0  0  0  0
  1 20  1  0  0  0  0
  1 21  1  0  0  0  0
  1 22  1  0  0  0  0
  2 23  1  0  0  0  0
  2 24  1  0  0  0  0
  7 25  1  0  0  0  0
  7 26  1  0  0  0  0
  8 27  1  0  0  0  0
  8 28  1  0  0  0  0
  8 29  1  0  0  0  0
 10 30  1  0  0  0  0
 10 31  1  0  0  0  0
 15 32  1  0  0  0  0
 15 33  1  0  0  0  0
 16 34  1  0  0  0  0
 16 35  1  0  0  0  0
 16 36  1  0  0  0  0
 18 37  1  0  0  0  0
 18 38  1  0  0  0  0
 19 39  1  0  0  0  0
 19 40  1  0  0  0  0
 19 41  1  0  0  0  0
M  END
