 xtb: 6.7.1 (edcfbbe)
          04092505213D

 41 40  0     0  0            999 V2000
    3.1312    2.2692   -1.8670 C   0  0  0  0  0  0  0  0  0  0  0  0
    3.1241    0.7620   -1.7141 C   0  0  0  0  0  0  0  0  0  0  0  0
    3.3851    0.3945   -0.3344 O   0  0  0  0  0  0  0  0  0  0  0  0
    2.2504   -0.0759    0.6622 P   0  0  0  0  0  0  0  0  0  0  0  0
    2.9540   -0.5377    2.4224 S   0  0  0  0  0  0  0  0  0  0  0  0
    1.4326   -1.2444   -0.0635 O   0  0  0  0  0  0  0  0  0  0  0  0
    1.7323   -2.6336    0.1550 C   0  0  0  0  0  0  0  0  0  0  0  0
    3.0332   -3.0289   -0.5117 C   0  0  0  0  0  0  0  0  0  0  0  0
    0.8099    1.4592    0.5979 S   0  0  0  0  0  0  0  0  0  0  0  0
   -0.2650    0.8084    1.8984 C   0  0  0  0  0  0  0  0  0  0  0  0
   -1.1771   -0.6969    1.4391 S   0  0  0  0  0  0  0  0  0  0  0  0
   -1.8637   -0.1280   -0.4922 P   0  0  0  0  0  0  0  0  0  0  0  0
   -0.7525   -0.2794   -2.0926 S   0  0  0  0  0  0  0  0  0  0  0  0
   -2.3666    1.3509   -0.1593 O   0  0  0  0  0  0  0  0  0  0  0  0
   -2.3347    2.4115   -1.1304 C   0  0  0  0  0  0  0  0  0  0  0  0
   -3.5095    2.3085   -2.0815 C   0  0  0  0  0  0  0  0  0  0  0  0
   -3.1194   -1.0740   -0.6940 O   0  0  0  0  0  0  0  0  0  0  0  0
   -4.0950   -1.4703    0.2970 C   0  0  0  0  0  0  0  0  0  0  0  0
   -4.8872   -0.2980    0.8362 C   0  0  0  0  0  0  0  0  0  0  0  0
    4.0715    2.6752   -1.5045 H   0  0  0  0  0  0  0  0  0  0  0  0
    3.0098    2.5168   -2.9167 H   0  0  0  0  0  0  0  0  0  0  0  0
    2.3147    2.7138   -1.3013 H   0  0  0  0  0  0  0  0  0  0  0  0
    3.9377    0.3035   -2.2784 H   0  0  0  0  0  0  0  0  0  0  0  0
    2.1688    0.3332   -2.0312 H   0  0  0  0  0  0  0  0  0  0  0  0
    1.7757   -2.8131    1.2344 H   0  0  0  0  0  0  0  0  0  0  0  0
    0.8772   -3.1590   -0.2744 H   0  0  0  0  0  0  0  0  0  0  0  0
    2.9900   -2.8137   -1.5766 H   0  0  0  0  0  0  0  0  0  0  0  0
    3.8573   -2.4697   -0.0681 H   0  0  0  0  0  0  0  0  0  0  0  0
    3.2053   -4.0904   -0.3641 H   0  0  0  0  0  0  0  0  0  0  0  0
   -0.9727    1.5980    2.1377 H   0  0  0  0  0  0  0  0  0  0  0  0
    0.3393    0.5409    2.7666 H   0  0  0  0  0  0  0  0  0  0  0  0
   -2.3682    3.3254   -0.5360 H   0  0  0  0  0  0  0  0  0  0  0  0
   -1.3882    2.3603   -1.6777 H   0  0  0  0  0  0  0  0  0  0  0  0
   -4.4467    2.3526   -1.5333 H   0  0  0  0  0  0  0  0  0  0  0  0
   -3.4704    3.1268   -2.7934 H   0  0  0  0  0  0  0  0  0  0  0  0
   -3.4583    1.3642   -2.6230 H   0  0  0  0  0  0  0  0  0  0  0  0
   -4.7323   -2.1695   -0.2473 H   0  0  0  0  0  0  0  0  0  0  0  0
   -3.5752   -1.9956    1.1021 H   0  0  0  0  0  0  0  0  0  0  0  0
   -5.6524   -0.6698    1.5106 H   0  0  0  0  0  0  0  0  0  0  0  0
   -4.2349    0.3813    1.3800 H   0  0  0  0  0  0  0  0  0  0  0  0
   -5.3615    0.2420    0.0208 H   0  0  0  0  0  0  0  0  0  0  0  0
  1  2  1  0  0  0  0
  2  3  1  0  0  0  0
  3  4  2  0  0  0  0
  4  5  2  0  0  0  0
  4  6  1  0  0  0  0
  6  7  1  0  0  0  0
  7  8  1  0  0  0  0
  4  9  1  0  0  0  0
  9 10  1  0  0  0  0
 10 11  1  0  0  0  0
 11 12  1  0  0  0  0
 12 13  2  0  0  0  0
 12 14  1  0  0  0  0
 14 15  1  0  0  0  0
 15 16  1  0  0  0  0
 12 17  2  0  0  0  0
 17 18  1  0  0  0  0
 18 19  1  0  0  0  0
  1 20  1  0  0  0  0
  1 21  1  0  0  0  0
  1 22  1  0  0  0  0
  2 23  1  0  0  0  0
  2 24  1  0  0  0  0
  7 25  1  0  0  0  0
  7 26  1  0  0  0  0
  8 27  1  0  0  0  0
  8 28  1  0  0  0  0
  8 29  1  0  0  0  0
 10 30  1  0  0  0  0
 10 31  1  0  0  0  0
 15 32  1  0  0  0  0
 15 33  1  0  0  0  0
 16 34  1  0  0  0  0
 16 35  1  0  0  0  0
 16 36  1  0  0  0  0
 18 37  1  0  0  0  0
 18 38  1  0  0  0  0
 19 39  1  0  0  0  0
 19 40  1  0  0  0  0
 19 41  1  0  0  0  0
M  END
