 xtb: 6.7.1 (edcfbbe)
          04092509473D

 38 37  0     0  0            999 V2000
    4.8572   -3.1786   -1.7620 C   0  0  0  0  0  0  0  0  0  0  0  0
    4.9524   -2.1572   -0.6399 C   0  0  0  0  0  0  0  0  0  0  0  0
    3.7163   -2.0929    0.0979 O   0  0  0  0  0  0  0  0  0  0  0  0
    2.7673   -1.2746   -0.3088 C   0  0  0  0  0  0  0  0  0  0  0  0
    2.8552   -0.5249   -1.2589 O   0  0  0  0  0  0  0  0  0  0  0  0
    1.5520   -1.3721    0.5879 C   0  0  0  0  0  0  0  0  0  0  0  0
    0.4192   -0.5273    0.0342 C   0  0  0  0  0  0  0  0  0  0  0  0
    0.0305   -0.9194   -0.9119 H   0  0  0  0  0  0  0  0  0  0  0  0
    0.7749    0.9310   -0.1756 C   0  0  0  0  0  0  0  0  0  0  0  0
    0.2394    1.6101   -1.0262 O   0  0  0  0  0  0  0  0  0  0  0  0
    1.6392    1.3708    0.7124 O   0  0  0  0  0  0  0  0  0  0  0  0
    2.0046    2.7665    0.6831 C   0  0  0  0  0  0  0  0  0  0  0  0
    0.9332    3.6357    1.3220 C   0  0  0  0  0  0  0  0  0  0  0  0
   -0.9639   -0.4967    1.2281 S   0  0  0  0  0  0  0  0  0  0  0  0
   -2.5055    0.1577   -0.0830 P   0  0  0  0  0  0  0  0  0  0  0  0
   -2.4443   -0.5391   -1.9072 S   0  0  0  0  0  0  0  0  0  0  0  0
   -3.8107   -0.2271    0.7542 O   0  0  0  0  0  0  0  0  0  0  0  0
   -4.2325   -1.5886    0.9112 C   0  0  0  0  0  0  0  0  0  0  0  0
   -2.5645    1.7353   -0.0036 O   0  0  0  0  0  0  0  0  0  0  0  0
   -2.7812    2.4229    1.2458 C   0  0  0  0  0  0  0  0  0  0  0  0
    4.1025   -2.8723   -2.4832 H   0  0  0  0  0  0  0  0  0  0  0  0
    5.8154   -3.2509   -2.2656 H   0  0  0  0  0  0  0  0  0  0  0  0
    4.5885   -4.1516   -1.3601 H   0  0  0  0  0  0  0  0  0  0  0  0
    5.1778   -1.1631   -1.0359 H   0  0  0  0  0  0  0  0  0  0  0  0
    5.6959   -2.4509    0.1015 H   0  0  0  0  0  0  0  0  0  0  0  0
    1.8349   -1.0244    1.5833 H   0  0  0  0  0  0  0  0  0  0  0  0
    1.2460   -2.4154    0.6670 H   0  0  0  0  0  0  0  0  0  0  0  0
    2.9382    2.8050    1.2444 H   0  0  0  0  0  0  0  0  0  0  0  0
    2.1732    3.0577   -0.3575 H   0  0  0  0  0  0  0  0  0  0  0  0
    0.7374    3.3061    2.3388 H   0  0  0  0  0  0  0  0  0  0  0  0
    1.2737    4.6657    1.3381 H   0  0  0  0  0  0  0  0  0  0  0  0
    0.0159    3.5786    0.7404 H   0  0  0  0  0  0  0  0  0  0  0  0
   -3.5484   -2.1158    1.5752 H   0  0  0  0  0  0  0  0  0  0  0  0
   -4.2678   -2.0838   -0.0598 H   0  0  0  0  0  0  0  0  0  0  0  0
   -5.2264   -1.5354    1.3486 H   0  0  0  0  0  0  0  0  0  0  0  0
   -2.0648    2.0770    1.9917 H   0  0  0  0  0  0  0  0  0  0  0  0
   -3.7963    2.2420    1.5927 H   0  0  0  0  0  0  0  0  0  0  0  0
   -2.6309    3.4760    1.0219 H   0  0  0  0  0  0  0  0  0  0  0  0
  1  2  1  0  0  0  0
  2  3  1  0  0  0  0
  3  4  1  0  0  0  0
  4  5  2  0  0  0  0
  4  6  1  0  0  0  0
  6  7  1  0  0  0  0
  7  8  1  0  0  0  0
  7  9  1  0  0  0  0
  9 10  2  0  0  0  0
  9 11  1  0  0  0  0
 11 12  1  0  0  0  0
 12 13  1  0  0  0  0
  7 14  1  0  0  0  0
 14 15  1  0  0  0  0
 15 16  2  0  0  0  0
 15 17  2  0  0  0  0
 17 18  1  0  0  0  0
 15 19  2  0  0  0  0
 19 20  1  0  0  0  0
  1 21  1  0  0  0  0
  1 22  1  0  0  0  0
  1 23  1  0  0  0  0
  2 24  1  0  0  0  0
  2 25  1  0  0  0  0
  6 26  1  0  0  0  0
  6 27  1  0  0  0  0
 12 28  1  0  0  0  0
 12 29  1  0  0  0  0
 13 30  1  0  0  0  0
 13 31  1  0  0  0  0
 13 32  1  0  0  0  0
 18 33  1  0  0  0  0
 18 34  1  0  0  0  0
 18 35  1  0  0  0  0
 20 36  1  0  0  0  0
 20 37  1  0  0  0  0
 20 38  1  0  0  0  0
M  END
