 xtb: 6.7.1 (edcfbbe)
          04092505213D

 41 40  0     0  0            999 V2000
    0.7596    0.2837    3.5112 C   0  0  0  0  0  0  0  0  0  0  0  0
    1.8857    0.4721    2.5162 C   0  0  0  0  0  0  0  0  0  0  0  0
    1.9783   -0.7391    1.7211 O   0  0  0  0  0  0  0  0  0  0  0  0
    2.5837   -0.7753    0.2685 P   0  0  0  0  0  0  0  0  0  0  0  0
    2.6143   -2.5924   -0.4530 S   0  0  0  0  0  0  0  0  0  0  0  0
    3.9929   -0.0681    0.4745 O   0  0  0  0  0  0  0  0  0  0  0  0
    5.0736   -0.1839   -0.4689 C   0  0  0  0  0  0  0  0  0  0  0  0
    4.7419    0.4430   -1.8074 C   0  0  0  0  0  0  0  0  0  0  0  0
    1.4550    0.6462   -0.8540 S   0  0  0  0  0  0  0  0  0  0  0  0
    0.0508   -0.4483   -1.1686 C   0  0  0  0  0  0  0  0  0  0  0  0
   -1.0876   -0.5623    0.2337 S   0  0  0  0  0  0  0  0  0  0  0  0
   -2.7426    0.5573   -0.5518 P   0  0  0  0  0  0  0  0  0  0  0  0
   -2.5427    1.2600   -2.3641 S   0  0  0  0  0  0  0  0  0  0  0  0
   -3.0916    1.6312    0.5725 O   0  0  0  0  0  0  0  0  0  0  0  0
   -2.5139    2.9485    0.5988 C   0  0  0  0  0  0  0  0  0  0  0  0
   -1.0388    2.9220    0.9429 C   0  0  0  0  0  0  0  0  0  0  0  0
   -3.9684   -0.4248   -0.4313 O   0  0  0  0  0  0  0  0  0  0  0  0
   -4.3359   -1.0955    0.8033 C   0  0  0  0  0  0  0  0  0  0  0  0
   -4.1059   -2.5873    0.6676 C   0  0  0  0  0  0  0  0  0  0  0  0
    0.9656   -0.5718    4.1477 H   0  0  0  0  0  0  0  0  0  0  0  0
    0.6709    1.1753    4.1236 H   0  0  0  0  0  0  0  0  0  0  0  0
   -0.1750    0.1035    2.9857 H   0  0  0  0  0  0  0  0  0  0  0  0
    2.8468    0.6130    3.0137 H   0  0  0  0  0  0  0  0  0  0  0  0
    1.6985    1.3172    1.8470 H   0  0  0  0  0  0  0  0  0  0  0  0
    5.9009    0.3300    0.0228 H   0  0  0  0  0  0  0  0  0  0  0  0
    5.3128   -1.2448   -0.5899 H   0  0  0  0  0  0  0  0  0  0  0  0
    3.9636   -0.1323   -2.3068 H   0  0  0  0  0  0  0  0  0  0  0  0
    4.3923    1.4637   -1.6728 H   0  0  0  0  0  0  0  0  0  0  0  0
    5.6296    0.4450   -2.4316 H   0  0  0  0  0  0  0  0  0  0  0  0
    0.4331   -1.4493   -1.3728 H   0  0  0  0  0  0  0  0  0  0  0  0
   -0.4880   -0.0431   -2.0283 H   0  0  0  0  0  0  0  0  0  0  0  0
   -2.6745    3.4159   -0.3776 H   0  0  0  0  0  0  0  0  0  0  0  0
   -3.0955    3.4702    1.3603 H   0  0  0  0  0  0  0  0  0  0  0  0
   -0.6849    3.9394    1.0747 H   0  0  0  0  0  0  0  0  0  0  0  0
   -0.8765    2.3627    1.8607 H   0  0  0  0  0  0  0  0  0  0  0  0
   -0.4729    2.4601    0.1343 H   0  0  0  0  0  0  0  0  0  0  0  0
   -3.7560   -0.6752    1.6272 H   0  0  0  0  0  0  0  0  0  0  0  0
   -5.3936   -0.8681    0.9450 H   0  0  0  0  0  0  0  0  0  0  0  0
   -3.0463   -2.8017    0.5500 H   0  0  0  0  0  0  0  0  0  0  0  0
   -4.4708   -3.0857    1.5600 H   0  0  0  0  0  0  0  0  0  0  0  0
   -4.6389   -2.9678   -0.1992 H   0  0  0  0  0  0  0  0  0  0  0  0
  1  2  1  0  0  0  0
  2  3  1  0  0  0  0
  3  4  2  0  0  0  0
  4  5  2  0  0  0  0
  4  6  2  0  0  0  0
  6  7  1  0  0  0  0
  7  8  1  0  0  0  0
  4  9  1  0  0  0  0
  9 10  1  0  0  0  0
 10 11  1  0  0  0  0
 11 12  1  0  0  0  0
 12 13  2  0  0  0  0
 12 14  2  0  0  0  0
 14 15  1  0  0  0  0
 15 16  1  0  0  0  0
 12 17  2  0  0  0  0
 17 18  1  0  0  0  0
 18 19  1  0  0  0  0
  1 20  1  0  0  0  0
  1 21  1  0  0  0  0
  1 22  1  0  0  0  0
  2 23  1  0  0  0  0
  2 24  1  0  0  0  0
  7 25  1  0  0  0  0
  7 26  1  0  0  0  0
  8 27  1  0  0  0  0
  8 28  1  0  0  0  0
  8 29  1  0  0  0  0
 10 30  1  0  0  0  0
 10 31  1  0  0  0  0
 15 32  1  0  0  0  0
 15 33  1  0  0  0  0
 16 34  1  0  0  0  0
 16 35  1  0  0  0  0
 16 36  1  0  0  0  0
 18 37  1  0  0  0  0
 18 38  1  0  0  0  0
 19 39  1  0  0  0  0
 19 40  1  0  0  0  0
 19 41  1  0  0  0  0
M  END
