 xtb: 6.7.1 (edcfbbe)
          04092507313D

 38 37  0     0  0            999 V2000
    3.8664   -1.4130    1.7177 C   0  0  0  0  0  0  0  0  0  0  0  0
    2.7896   -2.2249    1.0165 C   0  0  0  0  0  0  0  0  0  0  0  0
    2.4288   -1.6272   -0.2430 O   0  0  0  0  0  0  0  0  0  0  0  0
    1.5523   -0.6572   -0.2497 C   0  0  0  0  0  0  0  0  0  0  0  0
    1.0305   -0.1740    0.7428 O   0  0  0  0  0  0  0  0  0  0  0  0
    1.2733   -0.1359   -1.6411 C   0  0  0  0  0  0  0  0  0  0  0  0
    0.2873    1.0193   -1.5583 C   0  0  0  0  0  0  0  0  0  0  0  0
    0.3042    1.6028   -2.4831 H   0  0  0  0  0  0  0  0  0  0  0  0
    0.6079    1.9569   -0.3993 C   0  0  0  0  0  0  0  0  0  0  0  0
   -0.2264    2.4312    0.3360 O   0  0  0  0  0  0  0  0  0  0  0  0
    1.8941    2.2448   -0.3739 O   0  0  0  0  0  0  0  0  0  0  0  0
    2.3600    3.1559    0.6423 C   0  0  0  0  0  0  0  0  0  0  0  0
    2.1524    4.6020    0.2232 C   0  0  0  0  0  0  0  0  0  0  0  0
   -1.4608    0.5126   -1.4446 S   0  0  0  0  0  0  0  0  0  0  0  0
   -1.6678   -0.9281    0.1023 P   0  0  0  0  0  0  0  0  0  0  0  0
   -0.7152   -2.6337   -0.0559 S   0  0  0  0  0  0  0  0  0  0  0  0
   -1.5876   -0.2939    1.5447 O   0  0  0  0  0  0  0  0  0  0  0  0
   -2.3886    0.8246    1.9739 C   0  0  0  0  0  0  0  0  0  0  0  0
   -3.2542   -1.1283   -0.0231 O   0  0  0  0  0  0  0  0  0  0  0  0
   -3.8369   -1.8201   -1.1325 C   0  0  0  0  0  0  0  0  0  0  0  0
    3.4811   -0.4301    1.9802 H   0  0  0  0  0  0  0  0  0  0  0  0
    4.1664   -1.9267    2.6250 H   0  0  0  0  0  0  0  0  0  0  0  0
    4.7287   -1.2972    1.0671 H   0  0  0  0  0  0  0  0  0  0  0  0
    1.8888   -2.3033    1.6328 H   0  0  0  0  0  0  0  0  0  0  0  0
    3.1440   -3.2197    0.7476 H   0  0  0  0  0  0  0  0  0  0  0  0
    0.8887   -0.9486   -2.2598 H   0  0  0  0  0  0  0  0  0  0  0  0
    2.2180    0.2035   -2.0693 H   0  0  0  0  0  0  0  0  0  0  0  0
    1.8275    2.9358    1.5722 H   0  0  0  0  0  0  0  0  0  0  0  0
    3.4190    2.9192    0.7477 H   0  0  0  0  0  0  0  0  0  0  0  0
    1.0905    4.8148    0.1247 H   0  0  0  0  0  0  0  0  0  0  0  0
    2.5739    5.2555    0.9797 H   0  0  0  0  0  0  0  0  0  0  0  0
    2.6432    4.7896   -0.7277 H   0  0  0  0  0  0  0  0  0  0  0  0
   -1.9727    1.7435    1.5613 H   0  0  0  0  0  0  0  0  0  0  0  0
   -2.3110    0.8236    3.0580 H   0  0  0  0  0  0  0  0  0  0  0  0
   -3.4211    0.6917    1.6575 H   0  0  0  0  0  0  0  0  0  0  0  0
   -4.8485   -2.0703   -0.8228 H   0  0  0  0  0  0  0  0  0  0  0  0
   -3.2689   -2.7269   -1.3467 H   0  0  0  0  0  0  0  0  0  0  0  0
   -3.8492   -1.1711   -2.0071 H   0  0  0  0  0  0  0  0  0  0  0  0
  1  2  1  0  0  0  0
  2  3  1  0  0  0  0
  3  4  4  0  0  0  0
  4  5  2  0  0  0  0
  4  6  1  0  0  0  0
  6  7  1  0  0  0  0
  7  8  1  0  0  0  0
  7  9  1  0  0  0  0
  9 10  2  0  0  0  0
  9 11  1  0  0  0  0
 11 12  1  0  0  0  0
 12 13  1  0  0  0  0
  7 14  1  0  0  0  0
 14 15  1  0  0  0  0
 15 16  2  0  0  0  0
 15 17  2  0  0  0  0
 17 18  1  0  0  0  0
 15 19  1  0  0  0  0
 19 20  1  0  0  0  0
  1 21  1  0  0  0  0
  1 22  1  0  0  0  0
  1 23  1  0  0  0  0
  2 24  1  0  0  0  0
  2 25  1  0  0  0  0
  6 26  1  0  0  0  0
  6 27  1  0  0  0  0
 12 28  1  0  0  0  0
 12 29  1  0  0  0  0
 13 30  1  0  0  0  0
 13 31  1  0  0  0  0
 13 32  1  0  0  0  0
 18 33  1  0  0  0  0
 18 34  1  0  0  0  0
 18 35  1  0  0  0  0
 20 36  1  0  0  0  0
 20 37  1  0  0  0  0
 20 38  1  0  0  0  0
M  END
