41
 xtb: 6.7.1 (edcfbbe)
C            0.75344822392297       -2.39499286548205        2.47145780856637
C            1.92394811028383       -1.48019158342510        2.21949401862632
O            1.47787699874662       -0.40968853130201        1.30905490904680
P            2.34168265486746        0.01014793239510        0.02622067701266
S            3.00248248050451       -1.41690501936193       -1.12283449142201
O            3.45002230456325        0.96244425747842        0.70904200964317
C            4.58466762635315        1.46721070522714       -0.07835236002079
C            5.36182516405468        2.40310300754489        0.80985819077878
S            1.06833686981964        1.43862441744105       -0.87687833569853
C            0.19291037874748        0.41793568686509       -2.12621933817138
S           -0.86698284315115       -0.94917293361319       -1.51259733478692
P           -2.33733860534267        0.10228188223206       -0.41290871494082
S           -2.85783560870034        1.84955246278085       -1.09818548200236
O           -1.72236012507295        0.03998354570277        1.06601990128472
C           -2.36506227579947        0.73303863369525        2.19687071617044
C           -1.27585287880302        1.34173438170187        3.04217608539496
O           -3.49945070066178       -1.01089378117371       -0.30173894171205
C           -4.46782198695452       -1.19087836715779       -1.39394209128011
C           -5.29256923776668       -2.40600445690364       -1.05977133946385
H           -0.09057427754992       -1.84455217342594        2.89757094553389
H            0.43211342738795       -2.87861960354712        1.54413226488836
H            1.05430261608997       -3.17070738758748        3.18282585037975
H            2.76350581668856       -2.01576891312934        1.76582666434281
H            2.26639848573097       -0.98168765935947        3.13054540324291
H            5.18507367011483        0.60940219388928       -0.39472661353710
H            4.19420013548488        1.98036126311966       -0.96369990805347
H            5.73364225941064        1.88142475417926        1.69621611007140
H            6.21962551655622        2.78904164959027        0.25084555112837
H            4.74494349715273        3.24950213005977        1.12430626193068
H            0.92260934166722       -0.06111958932447       -2.78537732421408
H           -0.41216654360909        1.12519450993899       -2.70074871693849
H           -3.04818113467263        1.49642719312524        1.81092633856423
H           -2.93958317268318       -0.02302838213694        2.74001240113634
H           -0.71638515354703        2.09112126968665        2.47390766886288
H           -1.73043356110583        1.83124715940441        3.90933342217600
H           -0.58215873464175        0.57618801530879        3.40292620008832
H           -5.07793617729103       -0.28525115015976       -1.45608704702803
H           -3.91837991590824       -1.32060768818832       -2.33251350611931
H           -6.03106143366620       -2.56138970806179       -1.85213491000081
H           -4.66539602707648       -3.29925251097684       -0.99189737694939
H           -5.82471270851001       -2.26883480502451       -0.11420766013120
