 xtb: 6.7.1 (edcfbbe)
          04092505213D

 41 40  0     0  0            999 V2000
    3.9253    1.1286   -1.9531 C   0  0  0  0  0  0  0  0  0  0  0  0
    2.6182    0.3636   -1.9755 C   0  0  0  0  0  0  0  0  0  0  0  0
    2.5017   -0.5093   -0.8401 O   0  0  0  0  0  0  0  0  0  0  0  0
    2.0951    0.0198    0.6132 P   0  0  0  0  0  0  0  0  0  0  0  0
    1.0071    1.6485    0.6480 S   0  0  0  0  0  0  0  0  0  0  0  0
    3.4170    0.2661    1.4483 O   0  0  0  0  0  0  0  0  0  0  0  0
    4.6668   -0.4634    1.3670 C   0  0  0  0  0  0  0  0  0  0  0  0
    4.5069   -1.9641    1.4740 C   0  0  0  0  0  0  0  0  0  0  0  0
    1.2773   -1.7237    1.4549 S   0  0  0  0  0  0  0  0  0  0  0  0
   -0.2697   -1.8658    0.5225 C   0  0  0  0  0  0  0  0  0  0  0  0
   -1.5984   -0.7726    1.1159 S   0  0  0  0  0  0  0  0  0  0  0  0
   -2.0026    0.3562   -0.6474 P   0  0  0  0  0  0  0  0  0  0  0  0
   -0.8655   -0.0438   -2.1902 S   0  0  0  0  0  0  0  0  0  0  0  0
   -2.0494    1.8837   -0.2984 O   0  0  0  0  0  0  0  0  0  0  0  0
   -2.4264    2.4756    0.9675 C   0  0  0  0  0  0  0  0  0  0  0  0
   -3.7707    1.9934    1.4651 C   0  0  0  0  0  0  0  0  0  0  0  0
   -3.5426    0.0554   -0.9271 O   0  0  0  0  0  0  0  0  0  0  0  0
   -3.9800   -1.2323   -1.3984 C   0  0  0  0  0  0  0  0  0  0  0  0
   -5.4080   -1.0904   -1.8855 C   0  0  0  0  0  0  0  0  0  0  0  0
    3.9805    1.7650   -2.8308 H   0  0  0  0  0  0  0  0  0  0  0  0
    3.9695    1.7547   -1.0616 H   0  0  0  0  0  0  0  0  0  0  0  0
    4.7676    0.4416   -1.9565 H   0  0  0  0  0  0  0  0  0  0  0  0
    2.5428   -0.3018   -2.8366 H   0  0  0  0  0  0  0  0  0  0  0  0
    1.7666    1.0516   -1.9819 H   0  0  0  0  0  0  0  0  0  0  0  0
    5.1535   -0.1914    0.4278 H   0  0  0  0  0  0  0  0  0  0  0  0
    5.2369   -0.0604    2.2060 H   0  0  0  0  0  0  0  0  0  0  0  0
    5.4926   -2.4177    1.5160 H   0  0  0  0  0  0  0  0  0  0  0  0
    3.9542   -2.2265    2.3731 H   0  0  0  0  0  0  0  0  0  0  0  0
    3.9749   -2.3533    0.6085 H   0  0  0  0  0  0  0  0  0  0  0  0
   -0.5978   -2.8915    0.6686 H   0  0  0  0  0  0  0  0  0  0  0  0
   -0.0873   -1.6500   -0.5344 H   0  0  0  0  0  0  0  0  0  0  0  0
   -1.6300    2.2614    1.6857 H   0  0  0  0  0  0  0  0  0  0  0  0
   -2.4326    3.5437    0.7452 H   0  0  0  0  0  0  0  0  0  0  0  0
   -4.0327    2.5461    2.3620 H   0  0  0  0  0  0  0  0  0  0  0  0
   -4.5306    2.1542    0.7048 H   0  0  0  0  0  0  0  0  0  0  0  0
   -3.7265    0.9320    1.7051 H   0  0  0  0  0  0  0  0  0  0  0  0
   -3.3120   -1.5550   -2.2046 H   0  0  0  0  0  0  0  0  0  0  0  0
   -3.9103   -1.9415   -0.5684 H   0  0  0  0  0  0  0  0  0  0  0  0
   -6.0460   -0.7547   -1.0734 H   0  0  0  0  0  0  0  0  0  0  0  0
   -5.4548   -0.3653   -2.6930 H   0  0  0  0  0  0  0  0  0  0  0  0
   -5.7585   -2.0520   -2.2457 H   0  0  0  0  0  0  0  0  0  0  0  0
  1  2  1  0  0  0  0
  2  3  1  0  0  0  0
  3  4  1  0  0  0  0
  4  5  2  0  0  0  0
  4  6  2  0  0  0  0
  6  7  1  0  0  0  0
  7  8  1  0  0  0  0
  4  9  1  0  0  0  0
  9 10  1  0  0  0  0
 10 11  1  0  0  0  0
 11 12  1  0  0  0  0
 12 13  2  0  0  0  0
 12 14  2  0  0  0  0
 14 15  1  0  0  0  0
 15 16  1  0  0  0  0
 12 17  2  0  0  0  0
 17 18  1  0  0  0  0
 18 19  1  0  0  0  0
  1 20  1  0  0  0  0
  1 21  1  0  0  0  0
  1 22  1  0  0  0  0
  2 23  1  0  0  0  0
  2 24  1  0  0  0  0
  7 25  1  0  0  0  0
  7 26  1  0  0  0  0
  8 27  1  0  0  0  0
  8 28  1  0  0  0  0
  8 29  1  0  0  0  0
 10 30  1  0  0  0  0
 10 31  1  0  0  0  0
 15 32  1  0  0  0  0
 15 33  1  0  0  0  0
 16 34  1  0  0  0  0
 16 35  1  0  0  0  0
 16 36  1  0  0  0  0
 18 37  1  0  0  0  0
 18 38  1  0  0  0  0
 19 39  1  0  0  0  0
 19 40  1  0  0  0  0
 19 41  1  0  0  0  0
M  END
