 xtb: 6.7.1 (edcfbbe)
          04032519423D

  8  7  0     0  0            999 V2000
    0.6977   -0.5481   -0.2067 C   0  0  0  0  0  0  0  0  0  0  0  0
   -0.5735    0.1581    0.3096 C   0  0  0  0  0  0  0  0  0  0  0  0
   -0.4900    0.2872    1.6480 F   0  0  0  0  0  0  0  0  0  0  0  0
   -1.9980   -0.8267   -0.0754 Cl  0  0  0  0  0  0  0  0  0  0  0  0
   -0.6951    1.7623   -0.4163 Cl  0  0  0  0  0  0  0  0  0  0  0  0
    0.7846   -1.7840    0.3052 F   0  0  0  0  0  0  0  0  0  0  0  0
    0.6414   -0.6904   -1.5352 F   0  0  0  0  0  0  0  0  0  0  0  0
    2.1487    0.3687    0.2331 Cl  0  0  0  0  0  0  0  0  0  0  0  0
  1  2  1  0  0  0  0
  2  3  1  0  0  0  0
  2  4  1  0  0  0  0
  2  5  1  0  0  0  0
  1  6  1  0  0  0  0
  1  7  1  0  0  0  0
  1  8  1  0  0  0  0
M  END
