 xtb: 6.7.1 (edcfbbe)
          04092514033D

 41 40  0     0  0            999 V2000
    5.6074   -0.0299   -0.7079 C   0  0  0  0  0  0  0  0  0  0  0  0
    4.5567   -0.8791   -0.0175 C   0  0  0  0  0  0  0  0  0  0  0  0
    3.4924   -0.0498    0.4956 O   0  0  0  0  0  0  0  0  0  0  0  0
    2.0788    0.0841   -0.2223 P   0  0  0  0  0  0  0  0  0  0  0  0
    2.1165    0.4304   -2.1553 S   0  0  0  0  0  0  0  0  0  0  0  0
    1.3785    1.1776    0.6823 O   0  0  0  0  0  0  0  0  0  0  0  0
    1.4105    2.5794    0.3546 C   0  0  0  0  0  0  0  0  0  0  0  0
    2.7771    3.1835    0.5978 C   0  0  0  0  0  0  0  0  0  0  0  0
    1.1080   -1.6760    0.3966 S   0  0  0  0  0  0  0  0  0  0  0  0
   -0.1943   -1.8325   -0.8814 C   0  0  0  0  0  0  0  0  0  0  0  0
   -1.8576   -1.9614   -0.1917 S   0  0  0  0  0  0  0  0  0  0  0  0
   -2.2497    0.1021    0.1456 P   0  0  0  0  0  0  0  0  0  0  0  0
   -1.5998    1.3247   -1.2366 S   0  0  0  0  0  0  0  0  0  0  0  0
   -1.6445    0.4663    1.5573 O   0  0  0  0  0  0  0  0  0  0  0  0
   -2.0857   -0.1345    2.8051 C   0  0  0  0  0  0  0  0  0  0  0  0
   -0.9944   -1.0179    3.3739 C   0  0  0  0  0  0  0  0  0  0  0  0
   -3.8117    0.1184    0.4496 O   0  0  0  0  0  0  0  0  0  0  0  0
   -4.8354    0.3360   -0.5388 C   0  0  0  0  0  0  0  0  0  0  0  0
   -4.9850   -0.8236   -1.5019 C   0  0  0  0  0  0  0  0  0  0  0  0
    5.1826    0.4545   -1.5846 H   0  0  0  0  0  0  0  0  0  0  0  0
    5.9803    0.7314   -0.0282 H   0  0  0  0  0  0  0  0  0  0  0  0
    6.4307   -0.6648   -1.0199 H   0  0  0  0  0  0  0  0  0  0  0  0
    4.9682   -1.3850    0.8579 H   0  0  0  0  0  0  0  0  0  0  0  0
    4.1422   -1.6201   -0.7065 H   0  0  0  0  0  0  0  0  0  0  0  0
    1.1081    2.6986   -0.6919 H   0  0  0  0  0  0  0  0  0  0  0  0
    0.6470    3.0166    1.0003 H   0  0  0  0  0  0  0  0  0  0  0  0
    3.0950    2.9947    1.6198 H   0  0  0  0  0  0  0  0  0  0  0  0
    3.5030    2.7449   -0.0855 H   0  0  0  0  0  0  0  0  0  0  0  0
    2.7297    4.2542    0.4237 H   0  0  0  0  0  0  0  0  0  0  0  0
   -0.0199   -2.7598   -1.4208 H   0  0  0  0  0  0  0  0  0  0  0  0
   -0.1351   -0.9706   -1.5518 H   0  0  0  0  0  0  0  0  0  0  0  0
   -2.2941    0.7120    3.4619 H   0  0  0  0  0  0  0  0  0  0  0  0
   -3.0052   -0.6950    2.6277 H   0  0  0  0  0  0  0  0  0  0  0  0
   -0.0672   -0.4563    3.4575 H   0  0  0  0  0  0  0  0  0  0  0  0
   -1.2956   -1.3619    4.3583 H   0  0  0  0  0  0  0  0  0  0  0  0
   -0.8204   -1.8792    2.7331 H   0  0  0  0  0  0  0  0  0  0  0  0
   -5.7385    0.4758    0.0581 H   0  0  0  0  0  0  0  0  0  0  0  0
   -4.6010    1.2579   -1.0791 H   0  0  0  0  0  0  0  0  0  0  0  0
   -5.1496   -1.7525   -0.9627 H   0  0  0  0  0  0  0  0  0  0  0  0
   -5.8334   -0.6303   -2.1517 H   0  0  0  0  0  0  0  0  0  0  0  0
   -4.0901   -0.9235   -2.1135 H   0  0  0  0  0  0  0  0  0  0  0  0
  1  2  1  0  0  0  0
  2  3  1  0  0  0  0
  3  4  2  0  0  0  0
  4  5  2  0  0  0  0
  4  6  2  0  0  0  0
  6  7  1  0  0  0  0
  7  8  1  0  0  0  0
  4  9  1  0  0  0  0
  9 10  1  0  0  0  0
 10 11  1  0  0  0  0
 11 12  1  0  0  0  0
 12 13  2  0  0  0  0
 12 14  2  0  0  0  0
 14 15  1  0  0  0  0
 15 16  1  0  0  0  0
 12 17  2  0  0  0  0
 17 18  1  0  0  0  0
 18 19  1  0  0  0  0
  1 20  1  0  0  0  0
  1 21  1  0  0  0  0
  1 22  1  0  0  0  0
  2 23  1  0  0  0  0
  2 24  1  0  0  0  0
  7 25  1  0  0  0  0
  7 26  1  0  0  0  0
  8 27  1  0  0  0  0
  8 28  1  0  0  0  0
  8 29  1  0  0  0  0
 10 30  1  0  0  0  0
 10 31  1  0  0  0  0
 15 32  1  0  0  0  0
 15 33  1  0  0  0  0
 16 34  1  0  0  0  0
 16 35  1  0  0  0  0
 16 36  1  0  0  0  0
 18 37  1  0  0  0  0
 18 38  1  0  0  0  0
 19 39  1  0  0  0  0
 19 40  1  0  0  0  0
 19 41  1  0  0  0  0
M  END
