 xtb: 6.7.1 (edcfbbe)
          04092507313D

 38 37  0     0  0            999 V2000
    5.4751   -1.8891   -1.1313 C   0  0  0  0  0  0  0  0  0  0  0  0
    4.6810   -0.6108   -0.9144 C   0  0  0  0  0  0  0  0  0  0  0  0
    3.2752   -0.8313   -1.1396 O   0  0  0  0  0  0  0  0  0  0  0  0
    2.5405   -1.2675   -0.1358 C   0  0  0  0  0  0  0  0  0  0  0  0
    2.9575   -1.4966    0.9761 O   0  0  0  0  0  0  0  0  0  0  0  0
    1.0898   -1.4492   -0.5511 C   0  0  0  0  0  0  0  0  0  0  0  0
    0.5273   -0.1457   -1.1234 C   0  0  0  0  0  0  0  0  0  0  0  0
    1.1190    0.1634   -1.9884 H   0  0  0  0  0  0  0  0  0  0  0  0
    0.5408    0.9484   -0.0776 C   0  0  0  0  0  0  0  0  0  0  0  0
   -0.4846    1.4485    0.3485 O   0  0  0  0  0  0  0  0  0  0  0  0
    1.7428    1.2549    0.3120 O   0  0  0  0  0  0  0  0  0  0  0  0
    1.9017    2.2545    1.3466 C   0  0  0  0  0  0  0  0  0  0  0  0
    1.9478    3.6482    0.7445 C   0  0  0  0  0  0  0  0  0  0  0  0
   -1.1856   -0.3310   -1.7208 S   0  0  0  0  0  0  0  0  0  0  0  0
   -2.3003   -0.1674    0.0676 P   0  0  0  0  0  0  0  0  0  0  0  0
   -1.6954   -0.7816    1.8436 S   0  0  0  0  0  0  0  0  0  0  0  0
   -3.1942    1.1587    0.0728 O   0  0  0  0  0  0  0  0  0  0  0  0
   -3.0382    2.2828    0.9373 C   0  0  0  0  0  0  0  0  0  0  0  0
   -3.3946   -1.1736   -0.5457 O   0  0  0  0  0  0  0  0  0  0  0  0
   -4.5606   -1.5487    0.1904 C   0  0  0  0  0  0  0  0  0  0  0  0
    5.1867   -2.6372   -0.3963 H   0  0  0  0  0  0  0  0  0  0  0  0
    5.2897   -2.2810   -2.1274 H   0  0  0  0  0  0  0  0  0  0  0  0
    6.5336   -1.6776   -1.0208 H   0  0  0  0  0  0  0  0  0  0  0  0
    4.9557    0.1553   -1.6394 H   0  0  0  0  0  0  0  0  0  0  0  0
    4.8156   -0.2403    0.1054 H   0  0  0  0  0  0  0  0  0  0  0  0
    0.5180   -1.7714    0.3220 H   0  0  0  0  0  0  0  0  0  0  0  0
    1.0358   -2.2190   -1.3216 H   0  0  0  0  0  0  0  0  0  0  0  0
    1.0755    2.1536    2.0552 H   0  0  0  0  0  0  0  0  0  0  0  0
    2.8431    1.9912    1.8288 H   0  0  0  0  0  0  0  0  0  0  0  0
    2.1275    4.3691    1.5350 H   0  0  0  0  0  0  0  0  0  0  0  0
    2.7463    3.7138    0.0111 H   0  0  0  0  0  0  0  0  0  0  0  0
    1.0016    3.8823    0.2626 H   0  0  0  0  0  0  0  0  0  0  0  0
   -2.4211    3.0340    0.4493 H   0  0  0  0  0  0  0  0  0  0  0  0
   -2.5725    1.9750    1.8746 H   0  0  0  0  0  0  0  0  0  0  0  0
   -4.0418    2.6626    1.1166 H   0  0  0  0  0  0  0  0  0  0  0  0
   -4.9731   -2.4096   -0.3298 H   0  0  0  0  0  0  0  0  0  0  0  0
   -5.2766   -0.7275    0.2022 H   0  0  0  0  0  0  0  0  0  0  0  0
   -4.2879   -1.8173    1.2135 H   0  0  0  0  0  0  0  0  0  0  0  0
  1  2  1  0  0  0  0
  2  3  1  0  0  0  0
  3  4  1  0  0  0  0
  4  5  2  0  0  0  0
  4  6  1  0  0  0  0
  6  7  1  0  0  0  0
  7  8  1  0  0  0  0
  7  9  1  0  0  0  0
  9 10  2  0  0  0  0
  9 11  4  0  0  0  0
 11 12  1  0  0  0  0
 12 13  1  0  0  0  0
  7 14  1  0  0  0  0
 14 15  1  0  0  0  0
 15 16  2  0  0  0  0
 15 17  2  0  0  0  0
 17 18  1  0  0  0  0
 15 19  1  0  0  0  0
 19 20  1  0  0  0  0
  1 21  1  0  0  0  0
  1 22  1  0  0  0  0
  1 23  1  0  0  0  0
  2 24  1  0  0  0  0
  2 25  1  0  0  0  0
  6 26  1  0  0  0  0
  6 27  1  0  0  0  0
 12 28  1  0  0  0  0
 12 29  1  0  0  0  0
 13 30  1  0  0  0  0
 13 31  1  0  0  0  0
 13 32  1  0  0  0  0
 18 33  1  0  0  0  0
 18 34  1  0  0  0  0
 18 35  1  0  0  0  0
 20 36  1  0  0  0  0
 20 37  1  0  0  0  0
 20 38  1  0  0  0  0
M  END
