20
 xtb: 6.7.1 (edcfbbe)
C           -1.43110902493510        0.63575038376836       -1.37602017460869
C           -1.00334709209227        0.13284189324279        0.01637755500002
C           -1.83971063302156       -1.09463333135723        0.40489750036652
C           -1.19427959921346        1.24391463594838        1.05065877507634
C            0.44801649533419       -0.30656015241897       -0.12090834907217
O            0.80117430320398       -1.30464117364850       -0.73070697698976
O            1.32210599957847        0.52986726117678        0.46267582450740
C            2.72431452457637        0.18719791497340        0.31317678421409
H           -0.82170956407361        1.48933837880213       -1.69099175890335
H           -1.34003480221943       -0.15647449870194       -2.12491258790959
H           -2.47695788944216        0.95647902118034       -1.33424745621755
H           -1.52688075757942       -1.49053048553718        1.37680403149197
H           -1.75022243020241       -1.88917766856267       -0.34053800344121
H           -2.89243066043935       -0.80369604434850        0.47504402820304
H           -0.85504815350124        0.93007920541865        2.04254988433264
H           -0.65830785419067        2.15513961357115        0.77202722541482
H           -2.26014830554152        1.48504575308552        1.11620131345308
H            3.00178831334471        0.19142990988804       -0.74370357246074
H            2.92189806977120       -0.79448098074906        0.75027688164116
H            3.26860658919907        0.96126795826045        0.85316938621744
