 xtb: 6.7.1 (edcfbbe)
          04092505213D

 41 40  0     0  0            999 V2000
    4.3096    0.6307   -2.2176 C   0  0  0  0  0  0  0  0  0  0  0  0
    4.4674   -0.1359   -0.9193 C   0  0  0  0  0  0  0  0  0  0  0  0
    3.6104    0.4246    0.1095 O   0  0  0  0  0  0  0  0  0  0  0  0
    2.2754   -0.2331    0.6189 P   0  0  0  0  0  0  0  0  0  0  0  0
    1.5452    0.7869    2.1160 S   0  0  0  0  0  0  0  0  0  0  0  0
    2.7231   -1.7345    0.8980 O   0  0  0  0  0  0  0  0  0  0  0  0
    1.8096   -2.7540    1.3484 C   0  0  0  0  0  0  0  0  0  0  0  0
    1.7492   -2.8042    2.8628 C   0  0  0  0  0  0  0  0  0  0  0  0
    1.0233   -0.5089   -1.0964 S   0  0  0  0  0  0  0  0  0  0  0  0
    0.5261    1.2151   -1.3470 C   0  0  0  0  0  0  0  0  0  0  0  0
   -0.8032    1.7840   -0.2472 S   0  0  0  0  0  0  0  0  0  0  0  0
   -2.1444    0.1597   -0.5917 P   0  0  0  0  0  0  0  0  0  0  0  0
   -2.1814   -0.5909   -2.3945 S   0  0  0  0  0  0  0  0  0  0  0  0
   -3.5315    0.7208   -0.0558 O   0  0  0  0  0  0  0  0  0  0  0  0
   -4.4510    1.4404   -0.8980 C   0  0  0  0  0  0  0  0  0  0  0  0
   -3.8962    2.7735   -1.3555 C   0  0  0  0  0  0  0  0  0  0  0  0
   -1.7681   -0.9154    0.5043 O   0  0  0  0  0  0  0  0  0  0  0  0
   -1.8288   -0.6530    1.9282 C   0  0  0  0  0  0  0  0  0  0  0  0
   -3.1253   -1.1692    2.5148 C   0  0  0  0  0  0  0  0  0  0  0  0
    5.0541    0.2805   -2.9257 H   0  0  0  0  0  0  0  0  0  0  0  0
    3.3207    0.4721   -2.6413 H   0  0  0  0  0  0  0  0  0  0  0  0
    4.4566    1.6932   -2.0436 H   0  0  0  0  0  0  0  0  0  0  0  0
    5.4764   -0.0309   -0.5179 H   0  0  0  0  0  0  0  0  0  0  0  0
    4.2300   -1.1931   -1.0474 H   0  0  0  0  0  0  0  0  0  0  0  0
    0.8217   -2.5704    0.9146 H   0  0  0  0  0  0  0  0  0  0  0  0
    2.2133   -3.6817    0.9377 H   0  0  0  0  0  0  0  0  0  0  0  0
    1.3882   -1.8576    3.2600 H   0  0  0  0  0  0  0  0  0  0  0  0
    1.0785   -3.6009    3.1686 H   0  0  0  0  0  0  0  0  0  0  0  0
    2.7396   -2.9919    3.2678 H   0  0  0  0  0  0  0  0  0  0  0  0
    0.1810    1.2727   -2.3782 H   0  0  0  0  0  0  0  0  0  0  0  0
    1.3715    1.8776   -1.1713 H   0  0  0  0  0  0  0  0  0  0  0  0
   -4.6924    0.8091   -1.7586 H   0  0  0  0  0  0  0  0  0  0  0  0
   -5.3336    1.5667   -0.2694 H   0  0  0  0  0  0  0  0  0  0  0  0
   -3.0657    2.6152   -2.0417 H   0  0  0  0  0  0  0  0  0  0  0  0
   -4.6754    3.3273   -1.8691 H   0  0  0  0  0  0  0  0  0  0  0  0
   -3.5433    3.3505   -0.5041 H   0  0  0  0  0  0  0  0  0  0  0  0
   -0.9669   -1.1783    2.3453 H   0  0  0  0  0  0  0  0  0  0  0  0
   -1.7065    0.4200    2.1019 H   0  0  0  0  0  0  0  0  0  0  0  0
   -3.1019   -1.0333    3.5915 H   0  0  0  0  0  0  0  0  0  0  0  0
   -3.9697   -0.6244    2.1017 H   0  0  0  0  0  0  0  0  0  0  0  0
   -3.2411   -2.2252    2.2864 H   0  0  0  0  0  0  0  0  0  0  0  0
  1  2  1  0  0  0  0
  2  3  1  0  0  0  0
  3  4  2  0  0  0  0
  4  5  2  0  0  0  0
  4  6  2  0  0  0  0
  6  7  1  0  0  0  0
  7  8  1  0  0  0  0
  4  9  1  0  0  0  0
  9 10  1  0  0  0  0
 10 11  1  0  0  0  0
 11 12  1  0  0  0  0
 12 13  2  0  0  0  0
 12 14  2  0  0  0  0
 14 15  1  0  0  0  0
 15 16  1  0  0  0  0
 12 17  2  0  0  0  0
 17 18  1  0  0  0  0
 18 19  1  0  0  0  0
  1 20  1  0  0  0  0
  1 21  1  0  0  0  0
  1 22  1  0  0  0  0
  2 23  1  0  0  0  0
  2 24  1  0  0  0  0
  7 25  1  0  0  0  0
  7 26  1  0  0  0  0
  8 27  1  0  0  0  0
  8 28  1  0  0  0  0
  8 29  1  0  0  0  0
 10 30  1  0  0  0  0
 10 31  1  0  0  0  0
 15 32  1  0  0  0  0
 15 33  1  0  0  0  0
 16 34  1  0  0  0  0
 16 35  1  0  0  0  0
 16 36  1  0  0  0  0
 18 37  1  0  0  0  0
 18 38  1  0  0  0  0
 19 39  1  0  0  0  0
 19 40  1  0  0  0  0
 19 41  1  0  0  0  0
M  END
