 xtb: 6.7.1 (edcfbbe)
          04092505203D

 41 40  0     0  0            999 V2000
    3.2118    0.3684    3.3540 C   0  0  0  0  0  0  0  0  0  0  0  0
    1.9002   -0.1515    2.8054 C   0  0  0  0  0  0  0  0  0  0  0  0
    1.6344    0.3990    1.4987 O   0  0  0  0  0  0  0  0  0  0  0  0
    2.4068   -0.0942    0.2059 P   0  0  0  0  0  0  0  0  0  0  0  0
    3.0433   -1.9504    0.3221 S   0  0  0  0  0  0  0  0  0  0  0  0
    3.4914    1.0543    0.0502 O   0  0  0  0  0  0  0  0  0  0  0  0
    4.1762    1.4034   -1.1661 C   0  0  0  0  0  0  0  0  0  0  0  0
    4.8146    0.2108   -1.8477 C   0  0  0  0  0  0  0  0  0  0  0  0
    1.0106    0.3194   -1.3335 S   0  0  0  0  0  0  0  0  0  0  0  0
    0.0723   -1.2173   -1.1428 C   0  0  0  0  0  0  0  0  0  0  0  0
   -1.0535   -1.1717    0.2669 S   0  0  0  0  0  0  0  0  0  0  0  0
   -2.4500    0.1993   -0.5976 P   0  0  0  0  0  0  0  0  0  0  0  0
   -2.7159   -0.0793   -2.5179 S   0  0  0  0  0  0  0  0  0  0  0  0
   -1.9945    1.6724   -0.2831 O   0  0  0  0  0  0  0  0  0  0  0  0
   -2.2065    2.3877    0.9599 C   0  0  0  0  0  0  0  0  0  0  0  0
   -1.4518    1.7694    2.1170 C   0  0  0  0  0  0  0  0  0  0  0  0
   -3.7364    0.0271    0.3142 O   0  0  0  0  0  0  0  0  0  0  0  0
   -4.5505   -1.1621    0.2269 C   0  0  0  0  0  0  0  0  0  0  0  0
   -5.8822   -0.8621    0.8840 C   0  0  0  0  0  0  0  0  0  0  0  0
    3.3630   -0.0158    4.3577 H   0  0  0  0  0  0  0  0  0  0  0  0
    4.0306    0.0348    2.7171 H   0  0  0  0  0  0  0  0  0  0  0  0
    3.2071    1.4548    3.3759 H   0  0  0  0  0  0  0  0  0  0  0  0
    1.0485    0.1637    3.4091 H   0  0  0  0  0  0  0  0  0  0  0  0
    1.9156   -1.2434    2.7282 H   0  0  0  0  0  0  0  0  0  0  0  0
    3.4584    1.8907   -1.8322 H   0  0  0  0  0  0  0  0  0  0  0  0
    4.9269    2.1254   -0.8394 H   0  0  0  0  0  0  0  0  0  0  0  0
    4.0469   -0.4825   -2.1896 H   0  0  0  0  0  0  0  0  0  0  0  0
    5.3891    0.5499   -2.7038 H   0  0  0  0  0  0  0  0  0  0  0  0
    5.4717   -0.3147   -1.1587 H   0  0  0  0  0  0  0  0  0  0  0  0
    0.7632   -2.0458   -0.9791 H   0  0  0  0  0  0  0  0  0  0  0  0
   -0.5058   -1.3510   -2.0580 H   0  0  0  0  0  0  0  0  0  0  0  0
   -1.8416    3.3903    0.7314 H   0  0  0  0  0  0  0  0  0  0  0  0
   -3.2791    2.4156    1.1585 H   0  0  0  0  0  0  0  0  0  0  0  0
   -1.5696    2.3988    2.9936 H   0  0  0  0  0  0  0  0  0  0  0  0
   -1.8415    0.7766    2.3352 H   0  0  0  0  0  0  0  0  0  0  0  0
   -0.3951    1.6872    1.8733 H   0  0  0  0  0  0  0  0  0  0  0  0
   -4.6723   -1.4232   -0.8294 H   0  0  0  0  0  0  0  0  0  0  0  0
   -4.0238   -1.9725    0.7374 H   0  0  0  0  0  0  0  0  0  0  0  0
   -6.3796   -0.0470    0.3657 H   0  0  0  0  0  0  0  0  0  0  0  0
   -6.5069   -1.7480    0.8386 H   0  0  0  0  0  0  0  0  0  0  0  0
   -5.7314   -0.5817    1.9223 H   0  0  0  0  0  0  0  0  0  0  0  0
  1  2  1  0  0  0  0
  2  3  1  0  0  0  0
  3  4  2  0  0  0  0
  4  5  2  0  0  0  0
  4  6  2  0  0  0  0
  6  7  1  0  0  0  0
  7  8  1  0  0  0  0
  4  9  1  0  0  0  0
  9 10  1  0  0  0  0
 10 11  1  0  0  0  0
 11 12  1  0  0  0  0
 12 13  2  0  0  0  0
 12 14  2  0  0  0  0
 14 15  1  0  0  0  0
 15 16  1  0  0  0  0
 12 17  2  0  0  0  0
 17 18  1  0  0  0  0
 18 19  1  0  0  0  0
  1 20  1  0  0  0  0
  1 21  1  0  0  0  0
  1 22  1  0  0  0  0
  2 23  1  0  0  0  0
  2 24  1  0  0  0  0
  7 25  1  0  0  0  0
  7 26  1  0  0  0  0
  8 27  1  0  0  0  0
  8 28  1  0  0  0  0
  8 29  1  0  0  0  0
 10 30  1  0  0  0  0
 10 31  1  0  0  0  0
 15 32  1  0  0  0  0
 15 33  1  0  0  0  0
 16 34  1  0  0  0  0
 16 35  1  0  0  0  0
 16 36  1  0  0  0  0
 18 37  1  0  0  0  0
 18 38  1  0  0  0  0
 19 39  1  0  0  0  0
 19 40  1  0  0  0  0
 19 41  1  0  0  0  0
M  END
