 xtb: 6.7.1 (edcfbbe)
          04032520103D

 12 12  0     0  0            999 V2000
    1.0472    1.3510    0.0000 C   0  0  0  0  0  0  0  0  0  0  0  0
    0.3624    0.1892    0.0000 C   0  0  0  0  0  0  0  0  0  0  0  0
    1.0557   -1.0867    0.0000 C   0  0  0  0  0  0  0  0  0  0  0  0
    0.5308   -2.1805    0.0000 O   0  0  0  0  0  0  0  0  0  0  0  0
    2.4353   -0.9529   -0.0000 N   0  0  0  0  0  0  0  0  0  0  0  0
    3.1610    0.2129   -0.0000 C   0  0  0  0  0  0  0  0  0  0  0  0
    4.3747    0.2318   -0.0001 O   0  0  0  0  0  0  0  0  0  0  0  0
    2.4051    1.3593    0.0000 N   0  0  0  0  0  0  0  0  0  0  0  0
   -1.7363    0.1165    0.0001 I   0  0  0  0  0  0  0  0  0  0  0  0
    0.5548    2.3121    0.0001 H   0  0  0  0  0  0  0  0  0  0  0  0
    2.9732   -1.8154   -0.0000 H   0  0  0  0  0  0  0  0  0  0  0  0
    2.9132    2.2376    0.0000 H   0  0  0  0  0  0  0  0  0  0  0  0
  1  2  2  0  0  0  0
  2  3  1  0  0  0  0
  3  4  2  0  0  0  0
  3  5  1  0  0  0  0
  5  6  1  0  0  0  0
  6  7  2  0  0  0  0
  1  8  4  0  0  0  0
  6  8  1  0  0  0  0
  2  9  1  0  0  0  0
  1 10  1  0  0  0  0
  5 11  1  0  0  0  0
  8 12  1  0  0  0  0
M  END
