11
 xtb: 6.7.1 (edcfbbe)
C           -1.26726514803939        0.26822113505828       -0.00000658598012
C            0.00000154047080       -0.58252122805490       -0.00000264543396
C            1.26727241007434        0.26821510249961        0.00001209406912
H           -1.30346632650506        0.91452989283952       -0.88451719301751
H           -2.17039500211626       -0.35105389187182       -0.00003550385302
H           -1.30349702681370        0.91449189804122        0.88453048541576
H           -0.00000732456714       -1.23978681304521        0.87837219663894
H            0.00000678972137       -1.23977581961085       -0.87838579180688
H            2.17039941024296       -0.35106401005619        0.00004033892943
H            1.30347266875186        0.91451761700967        0.88452735260359
H            1.30351058880483        0.91449185868854       -0.88452032695705
