 xtb: 6.7.1 (edcfbbe)
          04092505213D

 41 40  0     0  0            999 V2000
    4.9024    1.2038   -1.0390 C   0  0  0  0  0  0  0  0  0  0  0  0
    4.4260   -0.2134   -1.2771 C   0  0  0  0  0  0  0  0  0  0  0  0
    3.5834   -0.7050   -0.2180 O   0  0  0  0  0  0  0  0  0  0  0  0
    2.2754    0.0129    0.3303 P   0  0  0  0  0  0  0  0  0  0  0  0
    2.4951    1.5202    1.5546 S   0  0  0  0  0  0  0  0  0  0  0  0
    1.5592   -1.1778    1.0750 O   0  0  0  0  0  0  0  0  0  0  0  0
    1.3627   -2.5076    0.5270 C   0  0  0  0  0  0  0  0  0  0  0  0
    1.3879   -3.4913    1.6781 C   0  0  0  0  0  0  0  0  0  0  0  0
    1.1793    0.4132   -1.4594 S   0  0  0  0  0  0  0  0  0  0  0  0
    0.0561    1.6419   -0.7400 C   0  0  0  0  0  0  0  0  0  0  0  0
   -0.9047    1.0303    0.6689 S   0  0  0  0  0  0  0  0  0  0  0  0
   -2.3454   -0.1025   -0.4346 P   0  0  0  0  0  0  0  0  0  0  0  0
   -1.7017   -1.6173   -1.4898 S   0  0  0  0  0  0  0  0  0  0  0  0
   -3.1088    0.9417   -1.3377 O   0  0  0  0  0  0  0  0  0  0  0  0
   -3.9959    1.9800   -0.8424 C   0  0  0  0  0  0  0  0  0  0  0  0
   -3.2933    3.3218   -0.7800 C   0  0  0  0  0  0  0  0  0  0  0  0
   -3.4238   -0.4710    0.6742 O   0  0  0  0  0  0  0  0  0  0  0  0
   -3.3189   -1.6623    1.4737 C   0  0  0  0  0  0  0  0  0  0  0  0
   -2.2588   -1.5300    2.5484 C   0  0  0  0  0  0  0  0  0  0  0  0
    5.3947    1.2810   -0.0725 H   0  0  0  0  0  0  0  0  0  0  0  0
    5.5983    1.4857   -1.8225 H   0  0  0  0  0  0  0  0  0  0  0  0
    4.0575    1.8907   -1.0491 H   0  0  0  0  0  0  0  0  0  0  0  0
    5.2593   -0.9185   -1.2881 H   0  0  0  0  0  0  0  0  0  0  0  0
    3.8688   -0.2826   -2.2157 H   0  0  0  0  0  0  0  0  0  0  0  0
    0.3991   -2.5148    0.0087 H   0  0  0  0  0  0  0  0  0  0  0  0
    2.1561   -2.7174   -0.1921 H   0  0  0  0  0  0  0  0  0  0  0  0
    2.3601   -3.4736    2.1632 H   0  0  0  0  0  0  0  0  0  0  0  0
    0.6278   -3.2320    2.4096 H   0  0  0  0  0  0  0  0  0  0  0  0
    1.1923   -4.4873    1.2942 H   0  0  0  0  0  0  0  0  0  0  0  0
   -0.6099    1.9545   -1.5417 H   0  0  0  0  0  0  0  0  0  0  0  0
    0.6429    2.4758   -0.3560 H   0  0  0  0  0  0  0  0  0  0  0  0
   -4.8107    1.9956   -1.5682 H   0  0  0  0  0  0  0  0  0  0  0  0
   -4.3779    1.6834    0.1350 H   0  0  0  0  0  0  0  0  0  0  0  0
   -4.0209    4.0841   -0.5192 H   0  0  0  0  0  0  0  0  0  0  0  0
   -2.5087    3.3151   -0.0272 H   0  0  0  0  0  0  0  0  0  0  0  0
   -2.8596    3.5653   -1.7465 H   0  0  0  0  0  0  0  0  0  0  0  0
   -4.3140   -1.7776    1.9055 H   0  0  0  0  0  0  0  0  0  0  0  0
   -3.1001   -2.5062    0.8112 H   0  0  0  0  0  0  0  0  0  0  0  0
   -1.2711   -1.4407    2.0979 H   0  0  0  0  0  0  0  0  0  0  0  0
   -2.4407   -0.6459    3.1543 H   0  0  0  0  0  0  0  0  0  0  0  0
   -2.2799   -2.4109    3.1821 H   0  0  0  0  0  0  0  0  0  0  0  0
  1  2  1  0  0  0  0
  2  3  1  0  0  0  0
  3  4  2  0  0  0  0
  4  5  2  0  0  0  0
  4  6  2  0  0  0  0
  6  7  1  0  0  0  0
  7  8  1  0  0  0  0
  4  9  1  0  0  0  0
  9 10  1  0  0  0  0
 10 11  1  0  0  0  0
 11 12  1  0  0  0  0
 12 13  2  0  0  0  0
 12 14  2  0  0  0  0
 14 15  1  0  0  0  0
 15 16  1  0  0  0  0
 12 17  2  0  0  0  0
 17 18  1  0  0  0  0
 18 19  1  0  0  0  0
  1 20  1  0  0  0  0
  1 21  1  0  0  0  0
  1 22  1  0  0  0  0
  2 23  1  0  0  0  0
  2 24  1  0  0  0  0
  7 25  1  0  0  0  0
  7 26  1  0  0  0  0
  8 27  1  0  0  0  0
  8 28  1  0  0  0  0
  8 29  1  0  0  0  0
 10 30  1  0  0  0  0
 10 31  1  0  0  0  0
 15 32  1  0  0  0  0
 15 33  1  0  0  0  0
 16 34  1  0  0  0  0
 16 35  1  0  0  0  0
 16 36  1  0  0  0  0
 18 37  1  0  0  0  0
 18 38  1  0  0  0  0
 19 39  1  0  0  0  0
 19 40  1  0  0  0  0
 19 41  1  0  0  0  0
M  END
