 xtb: 6.7.1 (edcfbbe)
          04092514023D

 41 40  0     0  0            999 V2000
    4.3220   -1.2108   -2.4797 C   0  0  0  0  0  0  0  0  0  0  0  0
    4.4904   -1.4399   -0.9911 C   0  0  0  0  0  0  0  0  0  0  0  0
    3.2305   -1.5307   -0.3004 O   0  0  0  0  0  0  0  0  0  0  0  0
    2.3017   -0.2795    0.0163 P   0  0  0  0  0  0  0  0  0  0  0  0
    3.2512    1.3936    0.4031 S   0  0  0  0  0  0  0  0  0  0  0  0
    1.3862   -0.8530    1.1759 O   0  0  0  0  0  0  0  0  0  0  0  0
    1.6161   -0.5678    2.5695 C   0  0  0  0  0  0  0  0  0  0  0  0
    2.7775   -1.3660    3.1251 C   0  0  0  0  0  0  0  0  0  0  0  0
    0.9020   -0.2667   -1.5661 S   0  0  0  0  0  0  0  0  0  0  0  0
    0.2254    1.3959   -1.2826 C   0  0  0  0  0  0  0  0  0  0  0  0
   -0.6256    1.5945    0.3067 S   0  0  0  0  0  0  0  0  0  0  0  0
   -2.2722    0.3160   -0.0583 P   0  0  0  0  0  0  0  0  0  0  0  0
   -2.9538    0.3148   -1.9004 S   0  0  0  0  0  0  0  0  0  0  0  0
   -3.3493    0.6907    1.0512 O   0  0  0  0  0  0  0  0  0  0  0  0
   -4.4511    1.5867    0.8182 C   0  0  0  0  0  0  0  0  0  0  0  0
   -4.0180    3.0380    0.7950 C   0  0  0  0  0  0  0  0  0  0  0  0
   -1.6750   -1.0309    0.5283 O   0  0  0  0  0  0  0  0  0  0  0  0
   -2.4618   -2.1611    0.9646 C   0  0  0  0  0  0  0  0  0  0  0  0
   -3.1328   -2.8853   -0.1852 C   0  0  0  0  0  0  0  0  0  0  0  0
    3.6589   -1.9587   -2.9067 H   0  0  0  0  0  0  0  0  0  0  0  0
    3.9020   -0.2235   -2.6649 H   0  0  0  0  0  0  0  0  0  0  0  0
    5.2936   -1.2765   -2.9604 H   0  0  0  0  0  0  0  0  0  0  0  0
    5.0754   -0.6310   -0.5416 H   0  0  0  0  0  0  0  0  0  0  0  0
    4.9678   -2.4000   -0.7881 H   0  0  0  0  0  0  0  0  0  0  0  0
    1.7948    0.5071    2.6797 H   0  0  0  0  0  0  0  0  0  0  0  0
    0.6736   -0.8333    3.0510 H   0  0  0  0  0  0  0  0  0  0  0  0
    3.7059   -1.0515    2.6504 H   0  0  0  0  0  0  0  0  0  0  0  0
    2.8509   -1.1913    4.1942 H   0  0  0  0  0  0  0  0  0  0  0  0
    2.6295   -2.4268    2.9408 H   0  0  0  0  0  0  0  0  0  0  0  0
   -0.4741    1.5773   -2.0984 H   0  0  0  0  0  0  0  0  0  0  0  0
    1.0339    2.1262   -1.2821 H   0  0  0  0  0  0  0  0  0  0  0  0
   -4.9277    1.3120   -0.1283 H   0  0  0  0  0  0  0  0  0  0  0  0
   -5.1302    1.3866    1.6488 H   0  0  0  0  0  0  0  0  0  0  0  0
   -3.3855    3.2274   -0.0707 H   0  0  0  0  0  0  0  0  0  0  0  0
   -4.8992    3.6693    0.7327 H   0  0  0  0  0  0  0  0  0  0  0  0
   -3.4623    3.2840    1.6959 H   0  0  0  0  0  0  0  0  0  0  0  0
   -1.7285   -2.8010    1.4589 H   0  0  0  0  0  0  0  0  0  0  0  0
   -3.1985   -1.8100    1.6911 H   0  0  0  0  0  0  0  0  0  0  0  0
   -2.3998   -3.1449   -0.9455 H   0  0  0  0  0  0  0  0  0  0  0  0
   -3.5976   -3.7926    0.1887 H   0  0  0  0  0  0  0  0  0  0  0  0
   -3.8960   -2.2577   -0.6422 H   0  0  0  0  0  0  0  0  0  0  0  0
  1  2  1  0  0  0  0
  2  3  1  0  0  0  0
  3  4  2  0  0  0  0
  4  5  2  0  0  0  0
  4  6  2  0  0  0  0
  6  7  1  0  0  0  0
  7  8  1  0  0  0  0
  4  9  1  0  0  0  0
  9 10  1  0  0  0  0
 10 11  1  0  0  0  0
 11 12  1  0  0  0  0
 12 13  2  0  0  0  0
 12 14  2  0  0  0  0
 14 15  1  0  0  0  0
 15 16  1  0  0  0  0
 12 17  2  0  0  0  0
 17 18  1  0  0  0  0
 18 19  1  0  0  0  0
  1 20  1  0  0  0  0
  1 21  1  0  0  0  0
  1 22  1  0  0  0  0
  2 23  1  0  0  0  0
  2 24  1  0  0  0  0
  7 25  1  0  0  0  0
  7 26  1  0  0  0  0
  8 27  1  0  0  0  0
  8 28  1  0  0  0  0
  8 29  1  0  0  0  0
 10 30  1  0  0  0  0
 10 31  1  0  0  0  0
 15 32  1  0  0  0  0
 15 33  1  0  0  0  0
 16 34  1  0  0  0  0
 16 35  1  0  0  0  0
 16 36  1  0  0  0  0
 18 37  1  0  0  0  0
 18 38  1  0  0  0  0
 19 39  1  0  0  0  0
 19 40  1  0  0  0  0
 19 41  1  0  0  0  0
M  END
