 xtb: 6.7.1 (edcfbbe)
          04092505213D

 41 40  0     0  0            999 V2000
    5.4871   -0.4095   -0.6663 C   0  0  0  0  0  0  0  0  0  0  0  0
    4.1754   -0.0402   -1.3279 C   0  0  0  0  0  0  0  0  0  0  0  0
    3.2976    0.6352   -0.3904 O   0  0  0  0  0  0  0  0  0  0  0  0
    2.1962   -0.0922    0.4731 P   0  0  0  0  0  0  0  0  0  0  0  0
    1.4428    1.1030    1.8223 S   0  0  0  0  0  0  0  0  0  0  0  0
    2.9570   -1.3529    1.0771 O   0  0  0  0  0  0  0  0  0  0  0  0
    2.4410   -2.0798    2.2052 C   0  0  0  0  0  0  0  0  0  0  0  0
    1.1694   -2.8285    1.8624 C   0  0  0  0  0  0  0  0  0  0  0  0
    0.9511   -1.0316   -1.0025 S   0  0  0  0  0  0  0  0  0  0  0  0
    0.5320    0.4060   -2.0184 C   0  0  0  0  0  0  0  0  0  0  0  0
   -0.4303    1.6669   -1.1312 S   0  0  0  0  0  0  0  0  0  0  0  0
   -1.9814    0.3807   -0.4743 P   0  0  0  0  0  0  0  0  0  0  0  0
   -2.5613   -0.9351   -1.8115 S   0  0  0  0  0  0  0  0  0  0  0  0
   -3.1137    1.3797    0.0096 O   0  0  0  0  0  0  0  0  0  0  0  0
   -4.0555    1.9705   -0.9098 C   0  0  0  0  0  0  0  0  0  0  0  0
   -5.3427    2.2425   -0.1575 C   0  0  0  0  0  0  0  0  0  0  0  0
   -1.4061   -0.1641    0.8945 O   0  0  0  0  0  0  0  0  0  0  0  0
   -2.2078   -0.4414    2.0652 C   0  0  0  0  0  0  0  0  0  0  0  0
   -3.1165   -1.6321    1.8442 C   0  0  0  0  0  0  0  0  0  0  0  0
    5.9468    0.4745   -0.2329 H   0  0  0  0  0  0  0  0  0  0  0  0
    5.3206   -1.1400    0.1203 H   0  0  0  0  0  0  0  0  0  0  0  0
    6.1531   -0.8312   -1.4127 H   0  0  0  0  0  0  0  0  0  0  0  0
    3.6671   -0.9260   -1.7181 H   0  0  0  0  0  0  0  0  0  0  0  0
    4.3289    0.6873   -2.1275 H   0  0  0  0  0  0  0  0  0  0  0  0
    3.2499   -2.7608    2.4731 H   0  0  0  0  0  0  0  0  0  0  0  0
    2.2640   -1.3701    3.0197 H   0  0  0  0  0  0  0  0  0  0  0  0
    0.3785   -2.1193    1.6197 H   0  0  0  0  0  0  0  0  0  0  0  0
    1.3287   -3.4755    1.0031 H   0  0  0  0  0  0  0  0  0  0  0  0
    0.8601   -3.4261    2.7138 H   0  0  0  0  0  0  0  0  0  0  0  0
   -0.0607    0.0156   -2.8458 H   0  0  0  0  0  0  0  0  0  0  0  0
    1.4318    0.9021   -2.3745 H   0  0  0  0  0  0  0  0  0  0  0  0
   -3.6132    2.8932   -1.2929 H   0  0  0  0  0  0  0  0  0  0  0  0
   -4.2163    1.2744   -1.7402 H   0  0  0  0  0  0  0  0  0  0  0  0
   -5.7703    1.3120    0.2057 H   0  0  0  0  0  0  0  0  0  0  0  0
   -5.1481    2.8963    0.6879 H   0  0  0  0  0  0  0  0  0  0  0  0
   -6.0489    2.7220   -0.8272 H   0  0  0  0  0  0  0  0  0  0  0  0
   -1.4643   -0.6281    2.8425 H   0  0  0  0  0  0  0  0  0  0  0  0
   -2.7782    0.4552    2.3139 H   0  0  0  0  0  0  0  0  0  0  0  0
   -3.6633   -1.8433    2.7576 H   0  0  0  0  0  0  0  0  0  0  0  0
   -3.8238   -1.4153    1.0443 H   0  0  0  0  0  0  0  0  0  0  0  0
   -2.5349   -2.5059    1.5597 H   0  0  0  0  0  0  0  0  0  0  0  0
  1  2  1  0  0  0  0
  2  3  1  0  0  0  0
  3  4  2  0  0  0  0
  4  5  2  0  0  0  0
  4  6  2  0  0  0  0
  6  7  1  0  0  0  0
  7  8  1  0  0  0  0
  4  9  1  0  0  0  0
  9 10  1  0  0  0  0
 10 11  1  0  0  0  0
 11 12  1  0  0  0  0
 12 13  2  0  0  0  0
 12 14  2  0  0  0  0
 14 15  1  0  0  0  0
 15 16  1  0  0  0  0
 12 17  2  0  0  0  0
 17 18  1  0  0  0  0
 18 19  1  0  0  0  0
  1 20  1  0  0  0  0
  1 21  1  0  0  0  0
  1 22  1  0  0  0  0
  2 23  1  0  0  0  0
  2 24  1  0  0  0  0
  7 25  1  0  0  0  0
  7 26  1  0  0  0  0
  8 27  1  0  0  0  0
  8 28  1  0  0  0  0
  8 29  1  0  0  0  0
 10 30  1  0  0  0  0
 10 31  1  0  0  0  0
 15 32  1  0  0  0  0
 15 33  1  0  0  0  0
 16 34  1  0  0  0  0
 16 35  1  0  0  0  0
 16 36  1  0  0  0  0
 18 37  1  0  0  0  0
 18 38  1  0  0  0  0
 19 39  1  0  0  0  0
 19 40  1  0  0  0  0
 19 41  1  0  0  0  0
M  END
