 xtb: 6.7.1 (edcfbbe)
          04092513583D

 41 40  0     0  0            999 V2000
    2.1481    1.5658    2.6236 C   0  0  0  0  0  0  0  0  0  0  0  0
    1.5351    0.2866    2.0928 C   0  0  0  0  0  0  0  0  0  0  0  0
    2.1830   -0.0157    0.8458 O   0  0  0  0  0  0  0  0  0  0  0  0
    2.0790   -1.4486    0.1607 P   0  0  0  0  0  0  0  0  0  0  0  0
    2.1439   -2.9703    1.3912 S   0  0  0  0  0  0  0  0  0  0  0  0
    3.2278   -1.3584   -0.9283 O   0  0  0  0  0  0  0  0  0  0  0  0
    4.5777   -1.7775   -0.6161 C   0  0  0  0  0  0  0  0  0  0  0  0
    5.2436   -0.8647    0.3927 C   0  0  0  0  0  0  0  0  0  0  0  0
    0.3431   -1.3867   -1.0431 S   0  0  0  0  0  0  0  0  0  0  0  0
    0.4792    0.2564   -1.8173 C   0  0  0  0  0  0  0  0  0  0  0  0
   -0.0314    1.6371   -0.7522 S   0  0  0  0  0  0  0  0  0  0  0  0
   -2.0299    1.0642   -0.4202 P   0  0  0  0  0  0  0  0  0  0  0  0
   -2.9698    0.1366   -1.8748 S   0  0  0  0  0  0  0  0  0  0  0  0
   -2.7376    2.4064    0.0591 O   0  0  0  0  0  0  0  0  0  0  0  0
   -3.2459    3.3948   -0.8621 C   0  0  0  0  0  0  0  0  0  0  0  0
   -4.2588    4.2504   -0.1266 C   0  0  0  0  0  0  0  0  0  0  0  0
   -1.8838    0.2974    0.9595 O   0  0  0  0  0  0  0  0  0  0  0  0
   -2.9414   -0.5249    1.5071 C   0  0  0  0  0  0  0  0  0  0  0  0
   -2.5814   -1.9910    1.3715 C   0  0  0  0  0  0  0  0  0  0  0  0
    1.6538    1.8400    3.5495 H   0  0  0  0  0  0  0  0  0  0  0  0
    3.2089    1.4245    2.8096 H   0  0  0  0  0  0  0  0  0  0  0  0
    2.0181    2.3612    1.8947 H   0  0  0  0  0  0  0  0  0  0  0  0
    0.4629    0.4071    1.9111 H   0  0  0  0  0  0  0  0  0  0  0  0
    1.6858   -0.5561    2.7763 H   0  0  0  0  0  0  0  0  0  0  0  0
    4.5410   -2.8041   -0.2382 H   0  0  0  0  0  0  0  0  0  0  0  0
    5.0875   -1.7554   -1.5800 H   0  0  0  0  0  0  0  0  0  0  0  0
    5.1997    0.1681    0.0576 H   0  0  0  0  0  0  0  0  0  0  0  0
    4.7421   -0.9470    1.3560 H   0  0  0  0  0  0  0  0  0  0  0  0
    6.2812   -1.1619    0.5126 H   0  0  0  0  0  0  0  0  0  0  0  0
   -0.1788    0.2135   -2.6845 H   0  0  0  0  0  0  0  0  0  0  0  0
    1.5089    0.4474   -2.1057 H   0  0  0  0  0  0  0  0  0  0  0  0
   -2.4030    3.9947   -1.2143 H   0  0  0  0  0  0  0  0  0  0  0  0
   -3.7009    2.8772   -1.7132 H   0  0  0  0  0  0  0  0  0  0  0  0
   -5.0944    3.6430    0.2095 H   0  0  0  0  0  0  0  0  0  0  0  0
   -3.7940    4.7184    0.7363 H   0  0  0  0  0  0  0  0  0  0  0  0
   -4.6257    5.0204   -0.7979 H   0  0  0  0  0  0  0  0  0  0  0  0
   -3.0222   -0.2266    2.5537 H   0  0  0  0  0  0  0  0  0  0  0  0
   -3.8785   -0.3036    0.9886 H   0  0  0  0  0  0  0  0  0  0  0  0
   -3.3366   -2.5944    1.8648 H   0  0  0  0  0  0  0  0  0  0  0  0
   -2.5299   -2.2711    0.3211 H   0  0  0  0  0  0  0  0  0  0  0  0
   -1.6136   -2.1867    1.8277 H   0  0  0  0  0  0  0  0  0  0  0  0
  1  2  1  0  0  0  0
  2  3  1  0  0  0  0
  3  4  2  0  0  0  0
  4  5  2  0  0  0  0
  4  6  2  0  0  0  0
  6  7  1  0  0  0  0
  7  8  1  0  0  0  0
  4  9  1  0  0  0  0
  9 10  1  0  0  0  0
 10 11  1  0  0  0  0
 11 12  1  0  0  0  0
 12 13  2  0  0  0  0
 12 14  2  0  0  0  0
 14 15  1  0  0  0  0
 15 16  1  0  0  0  0
 12 17  2  0  0  0  0
 17 18  1  0  0  0  0
 18 19  1  0  0  0  0
  1 20  1  0  0  0  0
  1 21  1  0  0  0  0
  1 22  1  0  0  0  0
  2 23  1  0  0  0  0
  2 24  1  0  0  0  0
  7 25  1  0  0  0  0
  7 26  1  0  0  0  0
  8 27  1  0  0  0  0
  8 28  1  0  0  0  0
  8 29  1  0  0  0  0
 10 30  1  0  0  0  0
 10 31  1  0  0  0  0
 15 32  1  0  0  0  0
 15 33  1  0  0  0  0
 16 34  1  0  0  0  0
 16 35  1  0  0  0  0
 16 36  1  0  0  0  0
 18 37  1  0  0  0  0
 18 38  1  0  0  0  0
 19 39  1  0  0  0  0
 19 40  1  0  0  0  0
 19 41  1  0  0  0  0
M  END
