38
 xtb: 6.7.1 (edcfbbe)
C            2.45137005134503       -2.75660971865671        0.63359298994567
C            3.41146242197148       -1.94979227068405       -0.20881934840584
O            2.74770340760819       -0.74747835030237       -0.72234006924259
C            2.00279633521578       -0.87437800896751       -1.82781342910392
O            1.92951874334851       -1.88747069862844       -2.49980900027165
C            1.25970196367462        0.40643805816627       -2.12251146660335
C            0.23669397381655        0.75861945509114       -1.02494502299299
H           -0.29391848680353        1.66375885910299       -1.33745001892016
C            0.88877241223909        1.05218434572298        0.32518665849768
O            0.70261654572117        0.43642747530713        1.35374753277133
O            1.67734448627171        2.12517343394321        0.20785078332764
C            2.42218714059616        2.53165548295718        1.40818145849723
C            3.64221930684277        1.66459533242998        1.61100593023251
S           -0.98646410753788       -0.61935915605017       -0.93603847223154
P           -2.43932908048062        0.15710066348419        0.40388098787186
S           -2.60855633042339        2.09037646069655        0.44020675328254
O           -3.72282327394866       -0.71476620616718       -0.03886164676253
C           -4.43335258594067       -0.40012218997783       -1.26950092215264
O           -2.17595633300450       -0.44361012156258        1.86630729564643
C           -1.83066750257678       -1.84718143429988        2.06256746047504
H            2.97552456372810       -3.63216165411953        1.02951835709029
H            2.08265621755062       -2.16507748344301        1.47647283420230
H            1.60029020874234       -3.10513085804703        0.04129595355140
H            3.80532941054134       -2.51900148051020       -1.05387610125867
H            4.24073451872343       -1.55806490692456        0.38279676355872
H            0.74867834940644        0.30298010920868       -3.08057551126875
H            1.97613460724733        1.23060284309176       -2.19195409470132
H            2.69412812466987        3.56734734357316        1.19951890392392
H            1.74123528324604        2.49959878568911        2.26211220489994
H            3.36987661232352        0.63018900967788        1.83578285296981
H            4.28487802858536        1.68281478262308        0.72614812279391
H            4.21320020408636        2.06015255827834        2.45715117962538
H           -5.20089102016126       -1.16755102446866       -1.36784924844873
H           -3.75481617711715       -0.43826110001684       -2.12604190867278
H           -4.89319289759248        0.58790317925842       -1.19011590720128
H           -2.57637623955860       -2.49596430766314        1.59735136711876
H           -1.82724107933896       -1.99470301233773        3.14224132680773
H           -0.83672631003289       -2.04492182319891        1.65287449211190
