 xtb: 6.7.1 (edcfbbe)
          04032520373D

 14 14  0     0  0            999 V2000
    1.4473   -0.7314   -0.2255 C   0  0  0  0  0  0  0  0  0  0  0  0
    1.4475    0.7312    0.2254 C   0  0  0  0  0  0  0  0  0  0  0  0
    0.0432    1.2171   -0.1271 C   0  0  0  0  0  0  0  0  0  0  0  0
   -0.8361    0.0000    0.0001 C   0  0  0  0  0  0  0  0  0  0  0  0
   -2.0498    0.0001   -0.0001 O   0  0  0  0  0  0  0  0  0  0  0  0
    0.0429   -1.2171    0.1271 C   0  0  0  0  0  0  0  0  0  0  0  0
    2.2236   -1.3158    0.2628 H   0  0  0  0  0  0  0  0  0  0  0  0
    1.5987   -0.7882   -1.3039 H   0  0  0  0  0  0  0  0  0  0  0  0
    1.5991    0.7880    1.3039 H   0  0  0  0  0  0  0  0  0  0  0  0
    2.2239    1.3155   -0.2630 H   0  0  0  0  0  0  0  0  0  0  0  0
   -0.3214    2.0356    0.4912 H   0  0  0  0  0  0  0  0  0  0  0  0
   -0.0109    1.5430   -1.1685 H   0  0  0  0  0  0  0  0  0  0  0  0
   -0.0111   -1.5428    1.1686 H   0  0  0  0  0  0  0  0  0  0  0  0
   -0.3218   -2.0356   -0.4911 H   0  0  0  0  0  0  0  0  0  0  0  0
  1  2  1  0  0  0  0
  2  3  1  0  0  0  0
  3  4  1  0  0  0  0
  4  5  2  0  0  0  0
  1  6  1  0  0  0  0
  4  6  1  0  0  0  0
  1  7  1  0  0  0  0
  1  8  1  0  0  0  0
  2  9  1  0  0  0  0
  2 10  1  0  0  0  0
  3 11  1  0  0  0  0
  3 12  1  0  0  0  0
  6 13  1  0  0  0  0
  6 14  1  0  0  0  0
M  END
