 xtb: 6.7.1 (edcfbbe)
          04032519423D

 20 20  0     0  0            999 V2000
    0.6424    1.6867   -0.0424 C   0  0  0  0  0  0  0  0  0  0  0  0
    1.4081    0.3823   -0.2706 C   0  0  0  0  0  0  0  0  0  0  0  0
    1.5984    0.2479   -1.3473 H   0  0  0  0  0  0  0  0  0  0  0  0
    0.5434   -0.7906    0.2087 C   0  0  0  0  0  0  0  0  0  0  0  0
    0.3793   -0.6923    1.2940 H   0  0  0  0  0  0  0  0  0  0  0  0
   -0.8134   -0.7434   -0.5093 C   0  0  0  0  0  0  0  0  0  0  0  0
   -0.6523   -0.8966   -1.5814 H   0  0  0  0  0  0  0  0  0  0  0  0
   -1.4640    0.6351   -0.2901 C   0  0  0  0  0  0  0  0  0  0  0  0
   -2.3468    0.7309   -0.9387 H   0  0  0  0  0  0  0  0  0  0  0  0
   -0.6185    1.6813   -0.6926 O   0  0  0  0  0  0  0  0  0  0  0  0
   -1.8149    0.7125    1.0574 O   0  0  0  0  0  0  0  0  0  0  0  0
   -1.6553   -1.7803   -0.0799 O   0  0  0  0  0  0  0  0  0  0  0  0
    1.2311   -1.9891   -0.0676 O   0  0  0  0  0  0  0  0  0  0  0  0
    2.6201    0.4603    0.4347 O   0  0  0  0  0  0  0  0  0  0  0  0
    1.1898    2.5289   -0.4629 H   0  0  0  0  0  0  0  0  0  0  0  0
    0.5214    1.8327    1.0373 H   0  0  0  0  0  0  0  0  0  0  0  0
   -2.3345    1.5128    1.2253 H   0  0  0  0  0  0  0  0  0  0  0  0
   -2.0078   -1.5467    0.7944 H   0  0  0  0  0  0  0  0  0  0  0  0
    0.6057   -2.7261    0.0014 H   0  0  0  0  0  0  0  0  0  0  0  0
    3.0471   -0.4090    0.3979 H   0  0  0  0  0  0  0  0  0  0  0  0
  1  2  1  0  0  0  0
  2  3  1  0  0  0  0
  2  4  1  0  0  0  0
  4  5  1  0  0  0  0
  4  6  1  0  0  0  0
  6  7  1  0  0  0  0
  6  8  1  0  0  0  0
  8  9  1  0  0  0  0
  1 10  1  0  0  0  0
  8 10  1  0  0  0  0
  8 11  1  0  0  0  0
  6 12  1  0  0  0  0
  4 13  1  0  0  0  0
  2 14  1  0  0  0  0
  1 15  1  0  0  0  0
  1 16  1  0  0  0  0
 11 17  1  0  0  0  0
 12 18  1  0  0  0  0
 13 19  1  0  0  0  0
 14 20  1  0  0  0  0
M  END
