 xtb: 6.7.1 (edcfbbe)
          04092505203D

 41 40  0     0  0            999 V2000
    3.2705    2.3165   -0.0650 C   0  0  0  0  0  0  0  0  0  0  0  0
    2.8465    1.8549    1.3137 C   0  0  0  0  0  0  0  0  0  0  0  0
    1.7762    0.8779    1.2646 O   0  0  0  0  0  0  0  0  0  0  0  0
    1.8922   -0.6206    0.7875 P   0  0  0  0  0  0  0  0  0  0  0  0
    0.4157   -1.7010    1.4923 S   0  0  0  0  0  0  0  0  0  0  0  0
    3.3487   -1.0159    1.2843 O   0  0  0  0  0  0  0  0  0  0  0  0
    3.7748   -2.3790    1.4545 C   0  0  0  0  0  0  0  0  0  0  0  0
    3.8261   -3.1383    0.1447 C   0  0  0  0  0  0  0  0  0  0  0  0
    2.0678   -0.6091   -1.3409 S   0  0  0  0  0  0  0  0  0  0  0  0
    0.3138   -0.5415   -1.7318 C   0  0  0  0  0  0  0  0  0  0  0  0
   -0.4630    0.9773   -1.0847 S   0  0  0  0  0  0  0  0  0  0  0  0
   -2.4218    0.2295   -0.7081 P   0  0  0  0  0  0  0  0  0  0  0  0
   -2.6289   -1.7169   -0.7443 S   0  0  0  0  0  0  0  0  0  0  0  0
   -3.3416    0.9012   -1.7953 O   0  0  0  0  0  0  0  0  0  0  0  0
   -3.2137    2.2415   -2.3327 C   0  0  0  0  0  0  0  0  0  0  0  0
   -3.1632    3.3067   -1.2597 C   0  0  0  0  0  0  0  0  0  0  0  0
   -2.9243    0.9357    0.6246 O   0  0  0  0  0  0  0  0  0  0  0  0
   -2.5368    0.5264    1.9462 C   0  0  0  0  0  0  0  0  0  0  0  0
   -1.4847    1.4620    2.5087 C   0  0  0  0  0  0  0  0  0  0  0  0
    3.7914    1.5218   -0.5936 H   0  0  0  0  0  0  0  0  0  0  0  0
    2.3991    2.6122   -0.6450 H   0  0  0  0  0  0  0  0  0  0  0  0
    3.9362    3.1676    0.0391 H   0  0  0  0  0  0  0  0  0  0  0  0
    2.4058    2.6706    1.8890 H   0  0  0  0  0  0  0  0  0  0  0  0
    3.6842    1.4210    1.8619 H   0  0  0  0  0  0  0  0  0  0  0  0
    4.7646   -2.2853    1.9038 H   0  0  0  0  0  0  0  0  0  0  0  0
    3.0922   -2.8686    2.1559 H   0  0  0  0  0  0  0  0  0  0  0  0
    4.2817   -4.1090    0.3120 H   0  0  0  0  0  0  0  0  0  0  0  0
    2.8184   -3.2867   -0.2410 H   0  0  0  0  0  0  0  0  0  0  0  0
    4.4062   -2.5878   -0.5915 H   0  0  0  0  0  0  0  0  0  0  0  0
   -0.2055   -1.3996   -1.2943 H   0  0  0  0  0  0  0  0  0  0  0  0
    0.2418   -0.5515   -2.8167 H   0  0  0  0  0  0  0  0  0  0  0  0
   -2.3140    2.2728   -2.9525 H   0  0  0  0  0  0  0  0  0  0  0  0
   -4.1006    2.3398   -2.9602 H   0  0  0  0  0  0  0  0  0  0  0  0
   -2.2530    3.2023   -0.6714 H   0  0  0  0  0  0  0  0  0  0  0  0
   -3.1689    4.2847   -1.7310 H   0  0  0  0  0  0  0  0  0  0  0  0
   -4.0219    3.2181   -0.5994 H   0  0  0  0  0  0  0  0  0  0  0  0
   -3.4563    0.5670    2.5335 H   0  0  0  0  0  0  0  0  0  0  0  0
   -2.1755   -0.5073    1.9184 H   0  0  0  0  0  0  0  0  0  0  0  0
   -1.2823    1.1852    3.5385 H   0  0  0  0  0  0  0  0  0  0  0  0
   -0.5605    1.3818    1.9404 H   0  0  0  0  0  0  0  0  0  0  0  0
   -1.8396    2.4879    2.4707 H   0  0  0  0  0  0  0  0  0  0  0  0
  1  2  1  0  0  0  0
  2  3  1  0  0  0  0
  3  4  2  0  0  0  0
  4  5  2  0  0  0  0
  4  6  2  0  0  0  0
  6  7  1  0  0  0  0
  7  8  1  0  0  0  0
  4  9  1  0  0  0  0
  9 10  1  0  0  0  0
 10 11  1  0  0  0  0
 11 12  1  0  0  0  0
 12 13  2  0  0  0  0
 12 14  2  0  0  0  0
 14 15  1  0  0  0  0
 15 16  1  0  0  0  0
 12 17  2  0  0  0  0
 17 18  1  0  0  0  0
 18 19  1  0  0  0  0
  1 20  1  0  0  0  0
  1 21  1  0  0  0  0
  1 22  1  0  0  0  0
  2 23  1  0  0  0  0
  2 24  1  0  0  0  0
  7 25  1  0  0  0  0
  7 26  1  0  0  0  0
  8 27  1  0  0  0  0
  8 28  1  0  0  0  0
  8 29  1  0  0  0  0
 10 30  1  0  0  0  0
 10 31  1  0  0  0  0
 15 32  1  0  0  0  0
 15 33  1  0  0  0  0
 16 34  1  0  0  0  0
 16 35  1  0  0  0  0
 16 36  1  0  0  0  0
 18 37  1  0  0  0  0
 18 38  1  0  0  0  0
 19 39  1  0  0  0  0
 19 40  1  0  0  0  0
 19 41  1  0  0  0  0
M  END
