 xtb: 6.7.1 (edcfbbe)
          04092505213D

 41 40  0     0  0            999 V2000
    6.1140    0.1740   -1.4644 C   0  0  0  0  0  0  0  0  0  0  0  0
    4.6962    0.6411   -1.2040 C   0  0  0  0  0  0  0  0  0  0  0  0
    3.9723   -0.4564   -0.6086 O   0  0  0  0  0  0  0  0  0  0  0  0
    2.6355   -0.1969    0.1886 P   0  0  0  0  0  0  0  0  0  0  0  0
    2.7217    1.1568    1.6093 S   0  0  0  0  0  0  0  0  0  0  0  0
    2.4442   -1.6928    0.6563 O   0  0  0  0  0  0  0  0  0  0  0  0
    1.4233   -2.1081    1.5846 C   0  0  0  0  0  0  0  0  0  0  0  0
    0.3341   -2.8749    0.8595 C   0  0  0  0  0  0  0  0  0  0  0  0
    1.2115    0.2132   -1.3501 S   0  0  0  0  0  0  0  0  0  0  0  0
    0.2010    1.4286   -0.4569 C   0  0  0  0  0  0  0  0  0  0  0  0
   -0.8543    0.7042    0.8244 S   0  0  0  0  0  0  0  0  0  0  0  0
   -2.4668    0.1394   -0.4652 P   0  0  0  0  0  0  0  0  0  0  0  0
   -2.0427   -1.1071   -1.9108 S   0  0  0  0  0  0  0  0  0  0  0  0
   -3.0186    1.5095   -1.0144 O   0  0  0  0  0  0  0  0  0  0  0  0
   -3.5437    2.5643   -0.1668 C   0  0  0  0  0  0  0  0  0  0  0  0
   -5.0498    2.4585   -0.0473 C   0  0  0  0  0  0  0  0  0  0  0  0
   -3.6001   -0.3396    0.5368 O   0  0  0  0  0  0  0  0  0  0  0  0
   -3.5859   -1.6426    1.1519 C   0  0  0  0  0  0  0  0  0  0  0  0
   -2.9505   -1.5841    2.5273 C   0  0  0  0  0  0  0  0  0  0  0  0
    6.5918   -0.1039   -0.5293 H   0  0  0  0  0  0  0  0  0  0  0  0
    6.1030   -0.6894   -2.1231 H   0  0  0  0  0  0  0  0  0  0  0  0
    6.6747    0.9775   -1.9305 H   0  0  0  0  0  0  0  0  0  0  0  0
    4.1912    0.9205   -2.1331 H   0  0  0  0  0  0  0  0  0  0  0  0
    4.6770    1.4917   -0.5134 H   0  0  0  0  0  0  0  0  0  0  0  0
    1.9377   -2.7488    2.3038 H   0  0  0  0  0  0  0  0  0  0  0  0
    1.0246   -1.2303    2.1058 H   0  0  0  0  0  0  0  0  0  0  0  0
    0.7703   -3.7046    0.3107 H   0  0  0  0  0  0  0  0  0  0  0  0
   -0.3778   -3.2575    1.5836 H   0  0  0  0  0  0  0  0  0  0  0  0
   -0.1875   -2.2363    0.1482 H   0  0  0  0  0  0  0  0  0  0  0  0
   -0.4149    1.9230   -1.2049 H   0  0  0  0  0  0  0  0  0  0  0  0
    0.8583    2.1318    0.0547 H   0  0  0  0  0  0  0  0  0  0  0  0
   -3.0629    2.5055    0.8133 H   0  0  0  0  0  0  0  0  0  0  0  0
   -3.2507    3.4878   -0.6698 H   0  0  0  0  0  0  0  0  0  0  0  0
   -5.5029    2.4681   -1.0349 H   0  0  0  0  0  0  0  0  0  0  0  0
   -5.3251    1.5359    0.4557 H   0  0  0  0  0  0  0  0  0  0  0  0
   -5.4194    3.3038    0.5249 H   0  0  0  0  0  0  0  0  0  0  0  0
   -4.6371   -1.9296    1.2143 H   0  0  0  0  0  0  0  0  0  0  0  0
   -3.0591   -2.3389    0.4916 H   0  0  0  0  0  0  0  0  0  0  0  0
   -3.4881   -0.8810    3.1570 H   0  0  0  0  0  0  0  0  0  0  0  0
   -2.9895   -2.5698    2.9796 H   0  0  0  0  0  0  0  0  0  0  0  0
   -1.9135   -1.2631    2.4561 H   0  0  0  0  0  0  0  0  0  0  0  0
  1  2  1  0  0  0  0
  2  3  1  0  0  0  0
  3  4  2  0  0  0  0
  4  5  2  0  0  0  0
  4  6  2  0  0  0  0
  6  7  1  0  0  0  0
  7  8  1  0  0  0  0
  4  9  1  0  0  0  0
  9 10  1  0  0  0  0
 10 11  1  0  0  0  0
 11 12  1  0  0  0  0
 12 13  2  0  0  0  0
 12 14  2  0  0  0  0
 14 15  1  0  0  0  0
 15 16  1  0  0  0  0
 12 17  2  0  0  0  0
 17 18  1  0  0  0  0
 18 19  1  0  0  0  0
  1 20  1  0  0  0  0
  1 21  1  0  0  0  0
  1 22  1  0  0  0  0
  2 23  1  0  0  0  0
  2 24  1  0  0  0  0
  7 25  1  0  0  0  0
  7 26  1  0  0  0  0
  8 27  1  0  0  0  0
  8 28  1  0  0  0  0
  8 29  1  0  0  0  0
 10 30  1  0  0  0  0
 10 31  1  0  0  0  0
 15 32  1  0  0  0  0
 15 33  1  0  0  0  0
 16 34  1  0  0  0  0
 16 35  1  0  0  0  0
 16 36  1  0  0  0  0
 18 37  1  0  0  0  0
 18 38  1  0  0  0  0
 19 39  1  0  0  0  0
 19 40  1  0  0  0  0
 19 41  1  0  0  0  0
M  END
