  22
 
 C         -3.2761351696        0.0402524442        0.8199202305
 C         -2.6770062716        1.2222572758        0.4182673015
 C         -1.5107655449        1.1905722689       -0.3260582032
 C         -0.9338767720       -0.0226006802       -0.6777631740
 C         -1.5368541398       -1.2038808070       -0.2666207849
 C         -2.7039360698       -1.1730605998        0.4764462366
 C          0.3609917326       -0.0568244967       -1.4555980375
 N          1.4908275435       -0.0102018204       -0.5552548294
 C          2.0941528591        1.1114315001       -0.0656027031
 C          3.0577974599        0.6775368974        0.7977468555
 N          3.0533378985       -0.6823841202        0.8544745015
 C          2.1011791567       -1.0568703952        0.0384940667
 H         -4.1868199696        0.0644737245        1.3986724142
 H         -3.1188913305        2.1705002921        0.6842058082
 H         -1.0483079893        2.1153198173       -0.6384345054
 H         -1.0934622859       -2.1523972089       -0.5319850094
 H         -3.1669923288       -2.0971761026        0.7874298996
 H          0.4268837763       -0.9778659211       -2.0388507165
 H          0.4227196922        0.8020024151       -2.1274774991
 H          1.8058873972        2.0959091085       -0.3685461472
 H          3.7545926499        1.2489327998        1.3775666562
 H          1.8370224420       -2.0774699014       -0.1521036330
          22
        -32.35889182
 C         -3.2874554346        0.7560635396       -0.4175860516
 C         -2.2516556217        1.5203240238        0.0944710301
 C         -1.0845570989        0.9111879505        0.5183855104
 C         -0.9393432882       -0.4680719889        0.4298609118
 C         -1.9784656024       -1.2275261915       -0.0884842243
 C         -3.1494970926       -0.6183758686       -0.5066394151
 C          0.3436962865       -1.1214351487        0.8880431374
 N          1.4929526136       -0.4899865349        0.2887210726
 C          1.8282700345       -0.5253600017       -1.0338997273
 C          2.9394514591        0.2561122755       -1.1630645876
 N          3.2886321549        0.7733708521        0.0468245587
 C          2.3986966583        0.3105567189        0.8873114890
 H         -4.1983675764        1.2318346879       -0.7474620101
 H         -2.3530997090        2.5926876827        0.1651051963
 H         -0.2761563940        1.5094363488        0.9144635532
 H         -1.8740946324       -2.2998587744       -0.1638024444
 H         -3.9527487921       -1.2179482376       -0.9071136544
 H          0.4420843159       -1.0317689783        1.9736225130
 H          0.3377102239       -2.1821146578        0.6220904474
 H          1.2643388157       -1.0859725378       -1.7493889020
 H          3.5115581088        0.4800645251       -2.0407391690
 H          2.3890648362        0.5265975248        1.9368396638
