 xtb: 6.7.1 (edcfbbe)
          04092505203D

 41 40  0     0  0            999 V2000
    3.0817    2.1903   -1.6331 C   0  0  0  0  0  0  0  0  0  0  0  0
    3.7820    1.7948   -0.3486 C   0  0  0  0  0  0  0  0  0  0  0  0
    3.5589    0.4130   -0.0277 O   0  0  0  0  0  0  0  0  0  0  0  0
    2.1643   -0.1101    0.5304 P   0  0  0  0  0  0  0  0  0  0  0  0
    1.3531    1.0951    1.8505 S   0  0  0  0  0  0  0  0  0  0  0  0
    2.5181   -1.5629    1.0493 O   0  0  0  0  0  0  0  0  0  0  0  0
    2.8778   -1.8129    2.4254 C   0  0  0  0  0  0  0  0  0  0  0  0
    4.2407   -1.2449    2.7590 C   0  0  0  0  0  0  0  0  0  0  0  0
    1.1131   -0.6398   -1.2350 S   0  0  0  0  0  0  0  0  0  0  0  0
   -0.0464   -1.8478   -0.5346 C   0  0  0  0  0  0  0  0  0  0  0  0
   -1.2287   -1.1326    0.6333 S   0  0  0  0  0  0  0  0  0  0  0  0
   -2.3036    0.0303   -0.8022 P   0  0  0  0  0  0  0  0  0  0  0  0
   -2.4067   -0.7302   -2.5986 S   0  0  0  0  0  0  0  0  0  0  0  0
   -1.6302    1.4560   -0.7923 O   0  0  0  0  0  0  0  0  0  0  0  0
   -1.6863    2.3503    0.3499 C   0  0  0  0  0  0  0  0  0  0  0  0
   -0.8270    3.5539    0.0295 C   0  0  0  0  0  0  0  0  0  0  0  0
   -3.6940    0.3209   -0.0879 O   0  0  0  0  0  0  0  0  0  0  0  0
   -4.8231   -0.5662   -0.2013 C   0  0  0  0  0  0  0  0  0  0  0  0
   -4.5811   -1.8993    0.4759 C   0  0  0  0  0  0  0  0  0  0  0  0
    3.3180    3.2219   -1.8735 H   0  0  0  0  0  0  0  0  0  0  0  0
    3.3976    1.5461   -2.4496 H   0  0  0  0  0  0  0  0  0  0  0  0
    2.0019    2.0907   -1.5175 H   0  0  0  0  0  0  0  0  0  0  0  0
    3.4315    2.4073    0.4897 H   0  0  0  0  0  0  0  0  0  0  0  0
    4.8658    1.8769   -0.4404 H   0  0  0  0  0  0  0  0  0  0  0  0
    2.1075   -1.3776    3.0701 H   0  0  0  0  0  0  0  0  0  0  0  0
    2.8606   -2.9004    2.5073 H   0  0  0  0  0  0  0  0  0  0  0  0
    4.5173   -1.5413    3.7659 H   0  0  0  0  0  0  0  0  0  0  0  0
    4.9829   -1.6116    2.0549 H   0  0  0  0  0  0  0  0  0  0  0  0
    4.2116   -0.1575    2.7052 H   0  0  0  0  0  0  0  0  0  0  0  0
    0.5017   -2.6222   -0.0052 H   0  0  0  0  0  0  0  0  0  0  0  0
   -0.5893   -2.2547   -1.3889 H   0  0  0  0  0  0  0  0  0  0  0  0
   -2.7291    2.6282    0.5103 H   0  0  0  0  0  0  0  0  0  0  0  0
   -1.3120    1.8197    1.2305 H   0  0  0  0  0  0  0  0  0  0  0  0
    0.2144    3.2562   -0.0578 H   0  0  0  0  0  0  0  0  0  0  0  0
   -1.1477    4.0041   -0.9054 H   0  0  0  0  0  0  0  0  0  0  0  0
   -0.9178    4.2758    0.8344 H   0  0  0  0  0  0  0  0  0  0  0  0
   -5.6333   -0.0129    0.2758 H   0  0  0  0  0  0  0  0  0  0  0  0
   -5.0422   -0.7083   -1.2639 H   0  0  0  0  0  0  0  0  0  0  0  0
   -4.2407   -1.7491    1.4975 H   0  0  0  0  0  0  0  0  0  0  0  0
   -5.5050   -2.4685    0.4831 H   0  0  0  0  0  0  0  0  0  0  0  0
   -3.8247   -2.4625   -0.0682 H   0  0  0  0  0  0  0  0  0  0  0  0
  1  2  1  0  0  0  0
  2  3  1  0  0  0  0
  3  4  2  0  0  0  0
  4  5  2  0  0  0  0
  4  6  2  0  0  0  0
  6  7  1  0  0  0  0
  7  8  1  0  0  0  0
  4  9  1  0  0  0  0
  9 10  1  0  0  0  0
 10 11  1  0  0  0  0
 11 12  1  0  0  0  0
 12 13  2  0  0  0  0
 12 14  2  0  0  0  0
 14 15  1  0  0  0  0
 15 16  1  0  0  0  0
 12 17  2  0  0  0  0
 17 18  1  0  0  0  0
 18 19  1  0  0  0  0
  1 20  1  0  0  0  0
  1 21  1  0  0  0  0
  1 22  1  0  0  0  0
  2 23  1  0  0  0  0
  2 24  1  0  0  0  0
  7 25  1  0  0  0  0
  7 26  1  0  0  0  0
  8 27  1  0  0  0  0
  8 28  1  0  0  0  0
  8 29  1  0  0  0  0
 10 30  1  0  0  0  0
 10 31  1  0  0  0  0
 15 32  1  0  0  0  0
 15 33  1  0  0  0  0
 16 34  1  0  0  0  0
 16 35  1  0  0  0  0
 16 36  1  0  0  0  0
 18 37  1  0  0  0  0
 18 38  1  0  0  0  0
 19 39  1  0  0  0  0
 19 40  1  0  0  0  0
 19 41  1  0  0  0  0
M  END
