 xtb: 6.7.1 (edcfbbe)
          04092505213D

 41 40  0     0  0            999 V2000
    5.4337   -0.0022   -0.9974 C   0  0  0  0  0  0  0  0  0  0  0  0
    4.5152   -0.8453   -0.1336 C   0  0  0  0  0  0  0  0  0  0  0  0
    3.5205   -0.0308    0.5155 O   0  0  0  0  0  0  0  0  0  0  0  0
    2.0807    0.2277   -0.1106 P   0  0  0  0  0  0  0  0  0  0  0  0
    2.0377    0.9701   -1.9279 S   0  0  0  0  0  0  0  0  0  0  0  0
    1.4377    1.0957    1.0472 O   0  0  0  0  0  0  0  0  0  0  0  0
    1.4691    2.5386    1.0148 C   0  0  0  0  0  0  0  0  0  0  0  0
    2.8811    3.0723    1.1138 C   0  0  0  0  0  0  0  0  0  0  0  0
    1.1666   -1.6621    0.1455 S   0  0  0  0  0  0  0  0  0  0  0  0
    0.1412   -1.7520   -1.3625 C   0  0  0  0  0  0  0  0  0  0  0  0
   -1.5910   -2.1445   -1.0143 S   0  0  0  0  0  0  0  0  0  0  0  0
   -2.0889   -0.4295    0.0975 P   0  0  0  0  0  0  0  0  0  0  0  0
   -1.3618    1.2799   -0.5498 S   0  0  0  0  0  0  0  0  0  0  0  0
   -1.6882   -0.8847    1.5557 O   0  0  0  0  0  0  0  0  0  0  0  0
   -1.4690    0.0343    2.6456 C   0  0  0  0  0  0  0  0  0  0  0  0
   -2.7151    0.8280    2.9739 C   0  0  0  0  0  0  0  0  0  0  0  0
   -3.6727   -0.4876    0.1589 O   0  0  0  0  0  0  0  0  0  0  0  0
   -4.4929   -0.0829   -0.9560 C   0  0  0  0  0  0  0  0  0  0  0  0
   -5.8935    0.1701   -0.4357 C   0  0  0  0  0  0  0  0  0  0  0  0
    4.8702    0.4668   -1.8010 H   0  0  0  0  0  0  0  0  0  0  0  0
    5.9030    0.7731   -0.3982 H   0  0  0  0  0  0  0  0  0  0  0  0
    6.2012   -0.6372   -1.4278 H   0  0  0  0  0  0  0  0  0  0  0  0
    5.0613   -1.3142    0.6871 H   0  0  0  0  0  0  0  0  0  0  0  0
    4.0176   -1.6179   -0.7272 H   0  0  0  0  0  0  0  0  0  0  0  0
    0.9825    2.8728    0.0922 H   0  0  0  0  0  0  0  0  0  0  0  0
    0.8607    2.8341    1.8709 H   0  0  0  0  0  0  0  0  0  0  0  0
    3.4456    2.7844    0.2276 H   0  0  0  0  0  0  0  0  0  0  0  0
    2.8517    4.1554    1.1781 H   0  0  0  0  0  0  0  0  0  0  0  0
    3.3738    2.6660    1.9933 H   0  0  0  0  0  0  0  0  0  0  0  0
    0.5094   -2.5672   -1.9800 H   0  0  0  0  0  0  0  0  0  0  0  0
    0.2143   -0.7961   -1.8897 H   0  0  0  0  0  0  0  0  0  0  0  0
   -1.1675   -0.6145    3.4692 H   0  0  0  0  0  0  0  0  0  0  0  0
   -0.6398    0.6956    2.3761 H   0  0  0  0  0  0  0  0  0  0  0  0
   -3.5466    0.1549    3.1661 H   0  0  0  0  0  0  0  0  0  0  0  0
   -2.5333    1.4413    3.8510 H   0  0  0  0  0  0  0  0  0  0  0  0
   -2.9714    1.4742    2.1347 H   0  0  0  0  0  0  0  0  0  0  0  0
   -4.0585    0.8194   -1.3999 H   0  0  0  0  0  0  0  0  0  0  0  0
   -4.4807   -0.8869   -1.6966 H   0  0  0  0  0  0  0  0  0  0  0  0
   -6.2769   -0.7272    0.0410 H   0  0  0  0  0  0  0  0  0  0  0  0
   -5.8850    0.9789    0.2893 H   0  0  0  0  0  0  0  0  0  0  0  0
   -6.5374    0.4404   -1.2661 H   0  0  0  0  0  0  0  0  0  0  0  0
  1  2  1  0  0  0  0
  2  3  1  0  0  0  0
  3  4  2  0  0  0  0
  4  5  2  0  0  0  0
  4  6  2  0  0  0  0
  6  7  1  0  0  0  0
  7  8  1  0  0  0  0
  4  9  1  0  0  0  0
  9 10  1  0  0  0  0
 10 11  1  0  0  0  0
 11 12  1  0  0  0  0
 12 13  2  0  0  0  0
 12 14  2  0  0  0  0
 14 15  1  0  0  0  0
 15 16  1  0  0  0  0
 12 17  2  0  0  0  0
 17 18  1  0  0  0  0
 18 19  1  0  0  0  0
  1 20  1  0  0  0  0
  1 21  1  0  0  0  0
  1 22  1  0  0  0  0
  2 23  1  0  0  0  0
  2 24  1  0  0  0  0
  7 25  1  0  0  0  0
  7 26  1  0  0  0  0
  8 27  1  0  0  0  0
  8 28  1  0  0  0  0
  8 29  1  0  0  0  0
 10 30  1  0  0  0  0
 10 31  1  0  0  0  0
 15 32  1  0  0  0  0
 15 33  1  0  0  0  0
 16 34  1  0  0  0  0
 16 35  1  0  0  0  0
 16 36  1  0  0  0  0
 18 37  1  0  0  0  0
 18 38  1  0  0  0  0
 19 39  1  0  0  0  0
 19 40  1  0  0  0  0
 19 41  1  0  0  0  0
M  END
