38
 xtb: 6.7.1 (edcfbbe)
C            3.49919158832071       -3.76782091091779       -0.90185217830290
C            4.16319736607546       -2.44717932844950       -1.21216768560868
O            3.19645876105514       -1.50166102447628       -1.78440828145314
C            2.42256948685801       -0.83090026386168       -0.92295526185001
O            2.47859472894788       -0.94319979769390        0.28973704027261
C            1.49853030803476        0.11776585265081       -1.64293709520376
C            0.34063037423728        0.59861505937810       -0.77019765034847
H           -0.20392116415237        1.37607225144806       -1.31973657277483
C            0.78614660174121        1.22818538451699        0.54676950230153
O            0.28495786824719        1.02272969899299        1.63334164192918
O            1.76024891672471        2.11451207173692        0.30902510889017
C            2.31073441584714        2.82640402675800        1.46949961959137
C            3.34400669813096        1.98004428835373        2.17409376010889
S           -0.82653393753983       -0.80656608167609       -0.51700016331343
P           -2.59151757852422        0.17711419036850        0.13311698805323
S           -2.82470296971133        2.00713831244406       -0.47200467176192
O           -3.69755553160419       -0.91399132657210       -0.30533241370418
C           -4.09034076489396       -1.03301000703932       -1.70155287686540
O           -2.69455548933200        0.06569172458129        1.72907848409214
C           -2.41484339418246       -1.18654625435312        2.42322241452524
H            3.03810072819888       -4.19040866281479       -1.79912862602778
H            4.25892658223841       -4.46972178843608       -0.54366039796208
H            2.73738855571244       -3.66133255892107       -0.12493859539594
H            4.91766025503339       -2.54986664771802       -1.99383869794302
H            4.61598471493129       -1.99099187110346       -0.32854973254964
H            1.12747185719938       -0.34240550835950       -2.56202099970738
H            2.09853557382890        0.98304620112776       -1.94813576765853
H            2.75356074944187        3.72332035901380        1.03366618108496
H            1.48547886336443        3.11061506533160        2.12660070578924
H            4.14127337197483        1.68656967604741        1.48518204388492
H            3.78864078654881        2.57031606142467        2.98172688566801
H            2.89949462210245        1.08205528150521        2.61097287284749
H           -4.60639799070604       -0.12367275109976       -2.01984182574309
H           -4.76716192682282       -1.88642069147386       -1.74381732884222
H           -3.21681266718993       -1.21691566054912       -2.33329257895373
H           -2.67251743300026       -1.00190660792221        3.46600030512972
H           -1.35305019733130       -1.42977354209682        2.33594373818733
H           -3.03068123744000       -1.99513366148212        2.02214795957726
