 xtb: 6.7.1 (edcfbbe)
          04092505213D

 41 40  0     0  0            999 V2000
    4.3875   -1.7490   -2.0094 C   0  0  0  0  0  0  0  0  0  0  0  0
    3.5752   -2.3780   -0.8973 C   0  0  0  0  0  0  0  0  0  0  0  0
    3.2241   -1.4381    0.1357 O   0  0  0  0  0  0  0  0  0  0  0  0
    2.4653   -0.0616   -0.0914 P   0  0  0  0  0  0  0  0  0  0  0  0
    3.4592    1.4742   -0.7865 S   0  0  0  0  0  0  0  0  0  0  0  0
    1.9584    0.2705    1.3586 O   0  0  0  0  0  0  0  0  0  0  0  0
    1.1616   -0.6221    2.1795 C   0  0  0  0  0  0  0  0  0  0  0  0
    0.7665    0.1498    3.4211 C   0  0  0  0  0  0  0  0  0  0  0  0
    0.7637   -0.6416   -1.2510 S   0  0  0  0  0  0  0  0  0  0  0  0
    0.1389    1.0335   -1.4775 C   0  0  0  0  0  0  0  0  0  0  0  0
   -0.6976    1.6779   -0.0063 S   0  0  0  0  0  0  0  0  0  0  0  0
   -2.4542    0.5214   -0.2428 P   0  0  0  0  0  0  0  0  0  0  0  0
   -3.1158    0.2434   -2.0604 S   0  0  0  0  0  0  0  0  0  0  0  0
   -3.5350    1.2774    0.6343 O   0  0  0  0  0  0  0  0  0  0  0  0
   -3.2953    1.8735    1.9314 C   0  0  0  0  0  0  0  0  0  0  0  0
   -3.1768    0.8322    3.0252 C   0  0  0  0  0  0  0  0  0  0  0  0
   -2.0491   -0.8183    0.5309 O   0  0  0  0  0  0  0  0  0  0  0  0
   -2.5763   -2.1226    0.2056 C   0  0  0  0  0  0  0  0  0  0  0  0
   -1.4843   -3.1559    0.3957 C   0  0  0  0  0  0  0  0  0  0  0  0
    4.6925   -2.5169   -2.7130 H   0  0  0  0  0  0  0  0  0  0  0  0
    3.7925   -1.0029   -2.5344 H   0  0  0  0  0  0  0  0  0  0  0  0
    5.2702   -1.2593   -1.6049 H   0  0  0  0  0  0  0  0  0  0  0  0
    4.1477   -3.1403   -0.3661 H   0  0  0  0  0  0  0  0  0  0  0  0
    2.6520   -2.8115   -1.2916 H   0  0  0  0  0  0  0  0  0  0  0  0
    0.2839   -0.9304    1.6040 H   0  0  0  0  0  0  0  0  0  0  0  0
    1.7666   -1.4984    2.4190 H   0  0  0  0  0  0  0  0  0  0  0  0
    0.1987    1.0335    3.1414 H   0  0  0  0  0  0  0  0  0  0  0  0
    0.1626   -0.4844    4.0623 H   0  0  0  0  0  0  0  0  0  0  0  0
    1.6544    0.4659    3.9608 H   0  0  0  0  0  0  0  0  0  0  0  0
   -0.5668    1.0069   -2.3086 H   0  0  0  0  0  0  0  0  0  0  0  0
    0.9771    1.7014   -1.6842 H   0  0  0  0  0  0  0  0  0  0  0  0
   -2.3922    2.4871    1.8686 H   0  0  0  0  0  0  0  0  0  0  0  0
   -4.1647    2.5163    2.0799 H   0  0  0  0  0  0  0  0  0  0  0  0
   -2.3041    0.2065    2.8590 H   0  0  0  0  0  0  0  0  0  0  0  0
   -3.0767    1.3356    3.9818 H   0  0  0  0  0  0  0  0  0  0  0  0
   -4.0653    0.2063    3.0427 H   0  0  0  0  0  0  0  0  0  0  0  0
   -3.4203   -2.3081    0.8742 H   0  0  0  0  0  0  0  0  0  0  0  0
   -2.9345   -2.1081   -0.8289 H   0  0  0  0  0  0  0  0  0  0  0  0
   -0.6538   -2.9497   -0.2744 H   0  0  0  0  0  0  0  0  0  0  0  0
   -1.1289   -3.1447    1.4221 H   0  0  0  0  0  0  0  0  0  0  0  0
   -1.8883   -4.1370    0.1684 H   0  0  0  0  0  0  0  0  0  0  0  0
  1  2  1  0  0  0  0
  2  3  1  0  0  0  0
  3  4  2  0  0  0  0
  4  5  2  0  0  0  0
  4  6  2  0  0  0  0
  6  7  1  0  0  0  0
  7  8  1  0  0  0  0
  4  9  1  0  0  0  0
  9 10  1  0  0  0  0
 10 11  1  0  0  0  0
 11 12  1  0  0  0  0
 12 13  2  0  0  0  0
 12 14  2  0  0  0  0
 14 15  1  0  0  0  0
 15 16  1  0  0  0  0
 12 17  1  0  0  0  0
 17 18  1  0  0  0  0
 18 19  1  0  0  0  0
  1 20  1  0  0  0  0
  1 21  1  0  0  0  0
  1 22  1  0  0  0  0
  2 23  1  0  0  0  0
  2 24  1  0  0  0  0
  7 25  1  0  0  0  0
  7 26  1  0  0  0  0
  8 27  1  0  0  0  0
  8 28  1  0  0  0  0
  8 29  1  0  0  0  0
 10 30  1  0  0  0  0
 10 31  1  0  0  0  0
 15 32  1  0  0  0  0
 15 33  1  0  0  0  0
 16 34  1  0  0  0  0
 16 35  1  0  0  0  0
 16 36  1  0  0  0  0
 18 37  1  0  0  0  0
 18 38  1  0  0  0  0
 19 39  1  0  0  0  0
 19 40  1  0  0  0  0
 19 41  1  0  0  0  0
M  END
