 xtb: 6.7.1 (edcfbbe)
          04092505213D

 41 40  0     0  0            999 V2000
    5.6508    0.5334    0.3069 C   0  0  0  0  0  0  0  0  0  0  0  0
    4.8180    0.1472   -0.8975 C   0  0  0  0  0  0  0  0  0  0  0  0
    3.5958    0.9284   -0.9628 O   0  0  0  0  0  0  0  0  0  0  0  0
    2.2310    0.4831   -0.3294 P   0  0  0  0  0  0  0  0  0  0  0  0
    0.7903    1.7301   -0.7752 S   0  0  0  0  0  0  0  0  0  0  0  0
    2.5918    0.3909    1.2190 O   0  0  0  0  0  0  0  0  0  0  0  0
    1.6359    0.1068    2.2573 C   0  0  0  0  0  0  0  0  0  0  0  0
    1.7360   -1.3412    2.6974 C   0  0  0  0  0  0  0  0  0  0  0  0
    1.9751   -1.5268   -1.0201 S   0  0  0  0  0  0  0  0  0  0  0  0
    0.2097   -1.5193   -1.3713 C   0  0  0  0  0  0  0  0  0  0  0  0
   -0.8130   -1.7356    0.1347 S   0  0  0  0  0  0  0  0  0  0  0  0
   -2.1869   -0.1683   -0.0902 P   0  0  0  0  0  0  0  0  0  0  0  0
   -2.4599    0.5487   -1.9001 S   0  0  0  0  0  0  0  0  0  0  0  0
   -1.7222    0.8244    1.0494 O   0  0  0  0  0  0  0  0  0  0  0  0
   -2.3221    2.1317    1.1957 C   0  0  0  0  0  0  0  0  0  0  0  0
   -1.4400    2.9442    2.1196 C   0  0  0  0  0  0  0  0  0  0  0  0
   -3.5189   -0.7465    0.5638 O   0  0  0  0  0  0  0  0  0  0  0  0
   -4.4189   -1.6080   -0.1606 C   0  0  0  0  0  0  0  0  0  0  0  0
   -5.8007   -1.4626    0.4449 C   0  0  0  0  0  0  0  0  0  0  0  0
    6.5859   -0.0173    0.2803 H   0  0  0  0  0  0  0  0  0  0  0  0
    5.8615    1.5992    0.2874 H   0  0  0  0  0  0  0  0  0  0  0  0
    5.1213    0.2986    1.2257 H   0  0  0  0  0  0  0  0  0  0  0  0
    4.5566   -0.9141   -0.8796 H   0  0  0  0  0  0  0  0  0  0  0  0
    5.3327    0.3845   -1.8301 H   0  0  0  0  0  0  0  0  0  0  0  0
    1.9002    0.7855    3.0709 H   0  0  0  0  0  0  0  0  0  0  0  0
    0.6291    0.3508    1.9035 H   0  0  0  0  0  0  0  0  0  0  0  0
    2.7514   -1.5649    3.0114 H   0  0  0  0  0  0  0  0  0  0  0  0
    1.0583   -1.5039    3.5291 H   0  0  0  0  0  0  0  0  0  0  0  0
    1.4599   -2.0126    1.8875 H   0  0  0  0  0  0  0  0  0  0  0  0
    0.0314   -2.3688   -2.0252 H   0  0  0  0  0  0  0  0  0  0  0  0
   -0.0781   -0.5806   -1.8515 H   0  0  0  0  0  0  0  0  0  0  0  0
   -2.3924    2.5915    0.2040 H   0  0  0  0  0  0  0  0  0  0  0  0
   -3.3261    1.9988    1.6060 H   0  0  0  0  0  0  0  0  0  0  0  0
   -0.4543    3.0612    1.6760 H   0  0  0  0  0  0  0  0  0  0  0  0
   -1.8839    3.9236    2.2641 H   0  0  0  0  0  0  0  0  0  0  0  0
   -1.3437    2.4426    3.0780 H   0  0  0  0  0  0  0  0  0  0  0  0
   -4.4105   -1.3135   -1.2157 H   0  0  0  0  0  0  0  0  0  0  0  0
   -4.0489   -2.6322   -0.0682 H   0  0  0  0  0  0  0  0  0  0  0  0
   -6.1561   -0.4426    0.3277 H   0  0  0  0  0  0  0  0  0  0  0  0
   -6.4827   -2.1385   -0.0605 H   0  0  0  0  0  0  0  0  0  0  0  0
   -5.7685   -1.7061    1.5029 H   0  0  0  0  0  0  0  0  0  0  0  0
  1  2  1  0  0  0  0
  2  3  1  0  0  0  0
  3  4  2  0  0  0  0
  4  5  2  0  0  0  0
  4  6  2  0  0  0  0
  6  7  1  0  0  0  0
  7  8  1  0  0  0  0
  4  9  1  0  0  0  0
  9 10  1  0  0  0  0
 10 11  1  0  0  0  0
 11 12  1  0  0  0  0
 12 13  2  0  0  0  0
 12 14  2  0  0  0  0
 14 15  1  0  0  0  0
 15 16  1  0  0  0  0
 12 17  2  0  0  0  0
 17 18  1  0  0  0  0
 18 19  1  0  0  0  0
  1 20  1  0  0  0  0
  1 21  1  0  0  0  0
  1 22  1  0  0  0  0
  2 23  1  0  0  0  0
  2 24  1  0  0  0  0
  7 25  1  0  0  0  0
  7 26  1  0  0  0  0
  8 27  1  0  0  0  0
  8 28  1  0  0  0  0
  8 29  1  0  0  0  0
 10 30  1  0  0  0  0
 10 31  1  0  0  0  0
 15 32  1  0  0  0  0
 15 33  1  0  0  0  0
 16 34  1  0  0  0  0
 16 35  1  0  0  0  0
 16 36  1  0  0  0  0
 18 37  1  0  0  0  0
 18 38  1  0  0  0  0
 19 39  1  0  0  0  0
 19 40  1  0  0  0  0
 19 41  1  0  0  0  0
M  END
