 xtb: 6.7.1 (edcfbbe)
          04032520443D

  9  8  0     0  0            999 V2000
   -1.6348   -0.4746    0.0000 C   0  0  0  0  0  0  0  0  0  0  0  0
   -0.6018    0.6562    0.0000 C   0  0  0  0  0  0  0  0  0  0  0  0
    0.7361    0.1351   -0.0000 C   0  0  0  0  0  0  0  0  0  0  0  0
    1.7986   -0.2941    0.0000 N   0  0  0  0  0  0  0  0  0  0  0  0
   -1.5177   -1.0992    0.8822 H   0  0  0  0  0  0  0  0  0  0  0  0
   -2.6357   -0.0526   -0.0001 H   0  0  0  0  0  0  0  0  0  0  0  0
   -1.5175   -1.0994   -0.8821 H   0  0  0  0  0  0  0  0  0  0  0  0
   -0.7211    1.2825    0.8874 H   0  0  0  0  0  0  0  0  0  0  0  0
   -0.7211    1.2825   -0.8874 H   0  0  0  0  0  0  0  0  0  0  0  0
  1  2  1  0  0  0  0
  2  3  1  0  0  0  0
  3  4  3  0  0  0  0
  1  5  1  0  0  0  0
  1  6  1  0  0  0  0
  1  7  1  0  0  0  0
  2  8  1  0  0  0  0
  2  9  1  0  0  0  0
M  END
