 xtb: 6.7.1 (edcfbbe)
          04092505213D

 41 40  0     0  0            999 V2000
    5.5950   -0.1341   -0.0570 C   0  0  0  0  0  0  0  0  0  0  0  0
    4.4115   -1.0746   -0.1535 C   0  0  0  0  0  0  0  0  0  0  0  0
    3.4955   -0.6460   -1.1927 O   0  0  0  0  0  0  0  0  0  0  0  0
    2.2121    0.2242   -0.9143 P   0  0  0  0  0  0  0  0  0  0  0  0
    1.2869    0.6033   -2.5958 S   0  0  0  0  0  0  0  0  0  0  0  0
    2.8035    1.4611   -0.1171 O   0  0  0  0  0  0  0  0  0  0  0  0
    1.9859    2.4708    0.5104 C   0  0  0  0  0  0  0  0  0  0  0  0
    2.0486    2.3116    2.0172 C   0  0  0  0  0  0  0  0  0  0  0  0
    1.1015   -0.8575    0.5514 S   0  0  0  0  0  0  0  0  0  0  0  0
   -0.0454   -1.6911   -0.5929 C   0  0  0  0  0  0  0  0  0  0  0  0
   -1.5995   -2.1408    0.2063 S   0  0  0  0  0  0  0  0  0  0  0  0
   -2.4754   -0.2143    0.5035 P   0  0  0  0  0  0  0  0  0  0  0  0
   -1.5396    1.3208   -0.2965 S   0  0  0  0  0  0  0  0  0  0  0  0
   -2.7627   -0.1765    2.0571 O   0  0  0  0  0  0  0  0  0  0  0  0
   -1.7092   -0.1430    3.0421 C   0  0  0  0  0  0  0  0  0  0  0  0
   -1.3693    1.2864    3.4172 C   0  0  0  0  0  0  0  0  0  0  0  0
   -3.9882   -0.3727    0.0744 O   0  0  0  0  0  0  0  0  0  0  0  0
   -4.4405   -0.0664   -1.2546 C   0  0  0  0  0  0  0  0  0  0  0  0
   -3.8843   -1.0309   -2.2839 C   0  0  0  0  0  0  0  0  0  0  0  0
    6.0979   -0.0699   -1.0180 H   0  0  0  0  0  0  0  0  0  0  0  0
    5.2648    0.8605    0.2300 H   0  0  0  0  0  0  0  0  0  0  0  0
    6.2891   -0.5122    0.6871 H   0  0  0  0  0  0  0  0  0  0  0  0
    3.8692   -1.1314    0.7947 H   0  0  0  0  0  0  0  0  0  0  0  0
    4.7228   -2.0740   -0.4624 H   0  0  0  0  0  0  0  0  0  0  0  0
    2.4084    3.4253    0.1910 H   0  0  0  0  0  0  0  0  0  0  0  0
    0.9596    2.3954    0.1388 H   0  0  0  0  0  0  0  0  0  0  0  0
    1.6470    1.3442    2.3100 H   0  0  0  0  0  0  0  0  0  0  0  0
    3.0781    2.3843    2.3557 H   0  0  0  0  0  0  0  0  0  0  0  0
    1.4618    3.0977    2.4811 H   0  0  0  0  0  0  0  0  0  0  0  0
    0.3969   -2.6249   -0.9313 H   0  0  0  0  0  0  0  0  0  0  0  0
   -0.2259   -1.0124   -1.4313 H   0  0  0  0  0  0  0  0  0  0  0  0
   -2.1153   -0.6928    3.8931 H   0  0  0  0  0  0  0  0  0  0  0  0
   -0.8283   -0.6689    2.6569 H   0  0  0  0  0  0  0  0  0  0  0  0
   -0.5977    1.2843    4.1801 H   0  0  0  0  0  0  0  0  0  0  0  0
   -1.0097    1.8264    2.5443 H   0  0  0  0  0  0  0  0  0  0  0  0
   -2.2529    1.7912    3.7971 H   0  0  0  0  0  0  0  0  0  0  0  0
   -5.5267   -0.1373   -1.1836 H   0  0  0  0  0  0  0  0  0  0  0  0
   -4.1514    0.9618   -1.4963 H   0  0  0  0  0  0  0  0  0  0  0  0
   -4.0672   -2.0578   -1.9772 H   0  0  0  0  0  0  0  0  0  0  0  0
   -4.3605   -0.8496   -3.2422 H   0  0  0  0  0  0  0  0  0  0  0  0
   -2.8104   -0.8800   -2.3964 H   0  0  0  0  0  0  0  0  0  0  0  0
  1  2  1  0  0  0  0
  2  3  1  0  0  0  0
  3  4  2  0  0  0  0
  4  5  2  0  0  0  0
  4  6  2  0  0  0  0
  6  7  1  0  0  0  0
  7  8  1  0  0  0  0
  4  9  1  0  0  0  0
  9 10  1  0  0  0  0
 10 11  1  0  0  0  0
 11 12  1  0  0  0  0
 12 13  2  0  0  0  0
 12 14  2  0  0  0  0
 14 15  1  0  0  0  0
 15 16  1  0  0  0  0
 12 17  2  0  0  0  0
 17 18  1  0  0  0  0
 18 19  1  0  0  0  0
  1 20  1  0  0  0  0
  1 21  1  0  0  0  0
  1 22  1  0  0  0  0
  2 23  1  0  0  0  0
  2 24  1  0  0  0  0
  7 25  1  0  0  0  0
  7 26  1  0  0  0  0
  8 27  1  0  0  0  0
  8 28  1  0  0  0  0
  8 29  1  0  0  0  0
 10 30  1  0  0  0  0
 10 31  1  0  0  0  0
 15 32  1  0  0  0  0
 15 33  1  0  0  0  0
 16 34  1  0  0  0  0
 16 35  1  0  0  0  0
 16 36  1  0  0  0  0
 18 37  1  0  0  0  0
 18 38  1  0  0  0  0
 19 39  1  0  0  0  0
 19 40  1  0  0  0  0
 19 41  1  0  0  0  0
M  END
