 xtb: 6.7.1 (edcfbbe)
          04092505203D

 41 40  0     0  0            999 V2000
    4.9963   -2.3941   -1.7870 C   0  0  0  0  0  0  0  0  0  0  0  0
    4.0119   -1.2423   -1.8151 C   0  0  0  0  0  0  0  0  0  0  0  0
    3.0188   -1.4809   -0.7972 O   0  0  0  0  0  0  0  0  0  0  0  0
    2.1236   -0.3077   -0.2022 P   0  0  0  0  0  0  0  0  0  0  0  0
    3.1370    1.2965    0.3032 S   0  0  0  0  0  0  0  0  0  0  0  0
    1.3630   -1.0810    0.9467 O   0  0  0  0  0  0  0  0  0  0  0  0
    1.8311   -1.1066    2.3149 C   0  0  0  0  0  0  0  0  0  0  0  0
    1.0485   -0.1231    3.1619 C   0  0  0  0  0  0  0  0  0  0  0  0
    0.6184   -0.0748   -1.6573 S   0  0  0  0  0  0  0  0  0  0  0  0
    0.0767    1.5873   -1.1736 C   0  0  0  0  0  0  0  0  0  0  0  0
   -0.6011    1.6568    0.5064 S   0  0  0  0  0  0  0  0  0  0  0  0
   -2.2162    0.3415    0.1935 P   0  0  0  0  0  0  0  0  0  0  0  0
   -3.0891    0.3507   -1.5659 S   0  0  0  0  0  0  0  0  0  0  0  0
   -3.2078    0.6223    1.4074 O   0  0  0  0  0  0  0  0  0  0  0  0
   -4.2721    1.5866    1.3292 C   0  0  0  0  0  0  0  0  0  0  0  0
   -3.7493    3.0076    1.2769 C   0  0  0  0  0  0  0  0  0  0  0  0
   -1.5559   -1.0171    0.6694 O   0  0  0  0  0  0  0  0  0  0  0  0
   -2.1325   -2.3078    0.3701 C   0  0  0  0  0  0  0  0  0  0  0  0
   -1.3782   -2.9694   -0.7663 C   0  0  0  0  0  0  0  0  0  0  0  0
    5.4906   -2.4406   -0.8207 H   0  0  0  0  0  0  0  0  0  0  0  0
    4.4749   -3.3308   -1.9615 H   0  0  0  0  0  0  0  0  0  0  0  0
    5.7398   -2.2453   -2.5630 H   0  0  0  0  0  0  0  0  0  0  0  0
    3.5008   -1.1764   -2.7791 H   0  0  0  0  0  0  0  0  0  0  0  0
    4.5049   -0.2873   -1.6035 H   0  0  0  0  0  0  0  0  0  0  0  0
    1.6704   -2.1347    2.6428 H   0  0  0  0  0  0  0  0  0  0  0  0
    2.8998   -0.8751    2.3356 H   0  0  0  0  0  0  0  0  0  0  0  0
    1.3296   -0.2435    4.2031 H   0  0  0  0  0  0  0  0  0  0  0  0
    1.2627    0.8971    2.8496 H   0  0  0  0  0  0  0  0  0  0  0  0
   -0.0182   -0.3026    3.0508 H   0  0  0  0  0  0  0  0  0  0  0  0
   -0.6864    1.8790   -1.8942 H   0  0  0  0  0  0  0  0  0  0  0  0
    0.9252    2.2705   -1.1893 H   0  0  0  0  0  0  0  0  0  0  0  0
   -4.8738    1.3648    0.4419 H   0  0  0  0  0  0  0  0  0  0  0  0
   -4.8575    1.4042    2.2313 H   0  0  0  0  0  0  0  0  0  0  0  0
   -3.0634    3.1886    2.1006 H   0  0  0  0  0  0  0  0  0  0  0  0
   -3.2220    3.1762    0.3389 H   0  0  0  0  0  0  0  0  0  0  0  0
   -4.5828    3.6996    1.3413 H   0  0  0  0  0  0  0  0  0  0  0  0
   -2.0409   -2.8778    1.2961 H   0  0  0  0  0  0  0  0  0  0  0  0
   -3.1895   -2.1827    0.1181 H   0  0  0  0  0  0  0  0  0  0  0  0
   -0.3162   -3.0056   -0.5349 H   0  0  0  0  0  0  0  0  0  0  0  0
   -1.7531   -3.9779   -0.9080 H   0  0  0  0  0  0  0  0  0  0  0  0
   -1.5131   -2.4048   -1.6868 H   0  0  0  0  0  0  0  0  0  0  0  0
  1  2  1  0  0  0  0
  2  3  1  0  0  0  0
  3  4  2  0  0  0  0
  4  5  2  0  0  0  0
  4  6  2  0  0  0  0
  6  7  1  0  0  0  0
  7  8  1  0  0  0  0
  4  9  1  0  0  0  0
  9 10  1  0  0  0  0
 10 11  1  0  0  0  0
 11 12  1  0  0  0  0
 12 13  2  0  0  0  0
 12 14  2  0  0  0  0
 14 15  1  0  0  0  0
 15 16  1  0  0  0  0
 12 17  2  0  0  0  0
 17 18  1  0  0  0  0
 18 19  1  0  0  0  0
  1 20  1  0  0  0  0
  1 21  1  0  0  0  0
  1 22  1  0  0  0  0
  2 23  1  0  0  0  0
  2 24  1  0  0  0  0
  7 25  1  0  0  0  0
  7 26  1  0  0  0  0
  8 27  1  0  0  0  0
  8 28  1  0  0  0  0
  8 29  1  0  0  0  0
 10 30  1  0  0  0  0
 10 31  1  0  0  0  0
 15 32  1  0  0  0  0
 15 33  1  0  0  0  0
 16 34  1  0  0  0  0
 16 35  1  0  0  0  0
 16 36  1  0  0  0  0
 18 37  1  0  0  0  0
 18 38  1  0  0  0  0
 19 39  1  0  0  0  0
 19 40  1  0  0  0  0
 19 41  1  0  0  0  0
M  END
