 xtb: 6.7.1 (edcfbbe)
          04092507313D

 38 37  0     0  0            999 V2000
    5.9110   -1.9590   -0.7874 C   0  0  0  0  0  0  0  0  0  0  0  0
    4.8519   -0.9967   -1.2876 C   0  0  0  0  0  0  0  0  0  0  0  0
    3.5596   -1.5455   -0.9615 O   0  0  0  0  0  0  0  0  0  0  0  0
    2.4949   -0.9105   -1.4004 C   0  0  0  0  0  0  0  0  0  0  0  0
    2.5283    0.1026   -2.0641 O   0  0  0  0  0  0  0  0  0  0  0  0
    1.2153   -1.6161   -0.9872 C   0  0  0  0  0  0  0  0  0  0  0  0
    0.2047   -0.5788   -0.5194 C   0  0  0  0  0  0  0  0  0  0  0  0
    0.1224    0.2185   -1.2715 H   0  0  0  0  0  0  0  0  0  0  0  0
    0.5900    0.0949    0.7818 C   0  0  0  0  0  0  0  0  0  0  0  0
   -0.2396    0.4362    1.6009 O   0  0  0  0  0  0  0  0  0  0  0  0
    1.8801    0.2635    0.8998 O   0  0  0  0  0  0  0  0  0  0  0  0
    2.3708    1.0082    2.0373 C   0  0  0  0  0  0  0  0  0  0  0  0
    2.3505    2.4989    1.7453 C   0  0  0  0  0  0  0  0  0  0  0  0
   -1.4517   -1.3024   -0.2955 S   0  0  0  0  0  0  0  0  0  0  0  0
   -2.5017    0.4752    0.2226 P   0  0  0  0  0  0  0  0  0  0  0  0
   -1.7678    2.1756   -0.4144 S   0  0  0  0  0  0  0  0  0  0  0  0
   -3.9346    0.1498   -0.4345 O   0  0  0  0  0  0  0  0  0  0  0  0
   -4.1181    0.1258   -1.8520 C   0  0  0  0  0  0  0  0  0  0  0  0
   -2.9267    0.4515    1.7422 O   0  0  0  0  0  0  0  0  0  0  0  0
   -3.5862   -0.6827    2.3388 C   0  0  0  0  0  0  0  0  0  0  0  0
    6.8940   -1.5591   -1.0123 H   0  0  0  0  0  0  0  0  0  0  0  0
    5.8152   -2.0937    0.2856 H   0  0  0  0  0  0  0  0  0  0  0  0
    5.7971   -2.9236   -1.2727 H   0  0  0  0  0  0  0  0  0  0  0  0
    4.9047   -0.8570   -2.3718 H   0  0  0  0  0  0  0  0  0  0  0  0
    4.9345   -0.0146   -0.8121 H   0  0  0  0  0  0  0  0  0  0  0  0
    1.4354   -2.3441   -0.2082 H   0  0  0  0  0  0  0  0  0  0  0  0
    0.8108   -2.1348   -1.8584 H   0  0  0  0  0  0  0  0  0  0  0  0
    1.7462    0.7712    2.9027 H   0  0  0  0  0  0  0  0  0  0  0  0
    3.3863    0.6401    2.1825 H   0  0  0  0  0  0  0  0  0  0  0  0
    2.9264    2.7144    0.8490 H   0  0  0  0  0  0  0  0  0  0  0  0
    1.3274    2.8370    1.5882 H   0  0  0  0  0  0  0  0  0  0  0  0
    2.7751    3.0373    2.5859 H   0  0  0  0  0  0  0  0  0  0  0  0
   -3.6794    1.0183   -2.3018 H   0  0  0  0  0  0  0  0  0  0  0  0
   -5.1935    0.1117   -2.0087 H   0  0  0  0  0  0  0  0  0  0  0  0
   -3.6560   -0.7683   -2.2705 H   0  0  0  0  0  0  0  0  0  0  0  0
   -3.6330   -0.4539    3.4002 H   0  0  0  0  0  0  0  0  0  0  0  0
   -3.0033   -1.5875    2.1651 H   0  0  0  0  0  0  0  0  0  0  0  0
   -4.5840   -0.7927    1.9177 H   0  0  0  0  0  0  0  0  0  0  0  0
  1  2  1  0  0  0  0
  2  3  1  0  0  0  0
  3  4  1  0  0  0  0
  4  5  2  0  0  0  0
  4  6  1  0  0  0  0
  6  7  1  0  0  0  0
  7  8  1  0  0  0  0
  7  9  1  0  0  0  0
  9 10  2  0  0  0  0
  9 11  4  0  0  0  0
 11 12  1  0  0  0  0
 12 13  1  0  0  0  0
  7 14  1  0  0  0  0
 14 15  1  0  0  0  0
 15 16  2  0  0  0  0
 15 17  1  0  0  0  0
 17 18  1  0  0  0  0
 15 19  2  0  0  0  0
 19 20  1  0  0  0  0
  1 21  1  0  0  0  0
  1 22  1  0  0  0  0
  1 23  1  0  0  0  0
  2 24  1  0  0  0  0
  2 25  1  0  0  0  0
  6 26  1  0  0  0  0
  6 27  1  0  0  0  0
 12 28  1  0  0  0  0
 12 29  1  0  0  0  0
 13 30  1  0  0  0  0
 13 31  1  0  0  0  0
 13 32  1  0  0  0  0
 18 33  1  0  0  0  0
 18 34  1  0  0  0  0
 18 35  1  0  0  0  0
 20 36  1  0  0  0  0
 20 37  1  0  0  0  0
 20 38  1  0  0  0  0
M  END
