 xtb: 6.7.1 (edcfbbe)
          04032519423D

 20 20  0     0  0            999 V2000
    0.6351    1.6977   -0.0419 C   0  0  0  0  0  0  0  0  0  0  0  0
    1.3973    0.3939   -0.2867 C   0  0  0  0  0  0  0  0  0  0  0  0
    1.5764    0.2760   -1.3691 H   0  0  0  0  0  0  0  0  0  0  0  0
    0.5382   -0.7862    0.2050 C   0  0  0  0  0  0  0  0  0  0  0  0
    0.3753   -0.6798    1.2841 H   0  0  0  0  0  0  0  0  0  0  0  0
   -0.8132   -0.7415   -0.5216 C   0  0  0  0  0  0  0  0  0  0  0  0
   -0.6500   -0.8473   -1.6004 H   0  0  0  0  0  0  0  0  0  0  0  0
   -1.4671    0.6333   -0.2637 C   0  0  0  0  0  0  0  0  0  0  0  0
   -2.3648    0.7298   -0.8912 H   0  0  0  0  0  0  0  0  0  0  0  0
   -0.6350    1.6890   -0.6750 O   0  0  0  0  0  0  0  0  0  0  0  0
   -1.7846    0.6949    1.0911 O   0  0  0  0  0  0  0  0  0  0  0  0
   -1.6690   -1.7875   -0.1581 O   0  0  0  0  0  0  0  0  0  0  0  0
    1.2180   -2.0078    0.0459 O   0  0  0  0  0  0  0  0  0  0  0  0
    2.6226    0.4560    0.3984 O   0  0  0  0  0  0  0  0  0  0  0  0
    1.1729    2.5439   -0.4671 H   0  0  0  0  0  0  0  0  0  0  0  0
    0.5282    1.8398    1.0397 H   0  0  0  0  0  0  0  0  0  0  0  0
   -2.3194    1.4809    1.2777 H   0  0  0  0  0  0  0  0  0  0  0  0
   -1.9254   -1.6748    0.7704 H   0  0  0  0  0  0  0  0  0  0  0  0
    1.1291   -2.3213   -0.8652 H   0  0  0  0  0  0  0  0  0  0  0  0
    2.9545   -0.4501    0.5056 H   0  0  0  0  0  0  0  0  0  0  0  0
  1  2  1  0  0  0  0
  2  3  1  0  0  0  0
  2  4  1  0  0  0  0
  4  5  1  0  0  0  0
  4  6  1  0  0  0  0
  6  7  1  0  0  0  0
  6  8  1  0  0  0  0
  8  9  1  0  0  0  0
  1 10  1  0  0  0  0
  8 10  1  0  0  0  0
  8 11  1  0  0  0  0
  6 12  1  0  0  0  0
  4 13  1  0  0  0  0
  2 14  1  0  0  0  0
  1 15  1  0  0  0  0
  1 16  1  0  0  0  0
 11 17  1  0  0  0  0
 12 18  1  0  0  0  0
 13 19  1  0  0  0  0
 14 20  1  0  0  0  0
M  END
