 xtb: 6.7.1 (edcfbbe)
          04032520163D

  9  8  0     0  0            999 V2000
    1.2480   -0.1793   -0.0000 C   0  0  0  0  0  0  0  0  0  0  0  0
   -0.1065    0.4457   -0.0000 C   0  0  0  0  0  0  0  0  0  0  0  0
   -1.2431   -0.2252   -0.0000 C   0  0  0  0  0  0  0  0  0  0  0  0
    1.8066    0.1396    0.8789 H   0  0  0  0  0  0  0  0  0  0  0  0
    1.8066    0.1396   -0.8789 H   0  0  0  0  0  0  0  0  0  0  0  0
    1.1764   -1.2637    0.0000 H   0  0  0  0  0  0  0  0  0  0  0  0
   -0.1163    1.5284   -0.0000 H   0  0  0  0  0  0  0  0  0  0  0  0
   -2.1996    0.2689    0.0000 H   0  0  0  0  0  0  0  0  0  0  0  0
   -1.2633   -1.3029    0.0000 H   0  0  0  0  0  0  0  0  0  0  0  0
  1  2  1  0  0  0  0
  2  3  2  0  0  0  0
  1  4  1  0  0  0  0
  1  5  1  0  0  0  0
  1  6  1  0  0  0  0
  2  7  1  0  0  0  0
  3  8  1  0  0  0  0
  3  9  1  0  0  0  0
M  END
