41
 xtb: 6.7.1 (edcfbbe)
C            2.24363600253977       -2.64991820054927        2.40002964098527
C            1.33050907905550       -1.79862997171645        1.55377965042901
O            2.10939873337275       -0.71781801483614        0.93051625414073
P            2.43536972130596       -0.72994688713321       -0.64662431320818
S            2.98344119994821       -2.42438429906287       -1.43462320072624
O            3.45449219807598        0.50694579999381       -0.73023556995891
C            4.90483687743552        0.32381609744400       -0.53200296668680
C            5.25827664226997        0.03264668878569        0.90531699705918
S            0.73040327373210       -0.00293444616160       -1.64173284003364
C            0.33188813063609        1.51530224912591       -0.66809315868445
S           -0.72709930501920        1.28850849862400        0.81219186595100
P           -2.60110789189424        0.90060411324051       -0.11803100932052
S           -3.06986137220202        2.07102989243197       -1.59669410883982
O           -3.55161812229120        0.86004518737114        1.17669514596132
C           -4.37323313294275        1.99891142714236        1.61670749509730
C           -3.56503120372523        3.01926169131616        2.37733914145624
O           -2.59207593527422       -0.63432652281448       -0.58473947120651
C           -2.35923667769529       -1.72967597216186        0.37306130300045
C           -1.92495777362527       -2.93586877043688       -0.41686018574846
H            2.74779060950379       -2.04269234782041        3.15742536929812
H            1.64601368866967       -3.41191579041245        2.91099855097547
H            2.99511269554029       -3.15253688284198        1.78505648690465
H            0.57375983851548       -1.29184206279476        2.15664016819633
H            0.82973041732818       -2.38662809601427        0.77774951195971
H            5.24065266659441       -0.46940426331930       -1.20710397131550
H            5.32357224949352        1.27545695555791       -0.86394494058922
H            4.85594664437626        0.80000026710906        1.57268065408932
H            4.89277095652179       -0.94729660193870        1.22527257218633
H            6.34954673842498        0.03373817792835        0.99676058256427
H           -0.16738699719497        2.19687488147950       -1.36349294597390
H            1.25320976718045        1.98688817111576       -0.31745625861691
H           -4.85715091411044        2.43060467360904        0.73584255863334
H           -5.13192789940529        1.53359539902546        2.24875986439189
H           -2.83991989956495        3.52313545983549        1.73226326430472
H           -4.24985848255496        3.77547084740602        2.77487683244917
H           -3.03841526667196        2.55702479055234        3.21729246539948
H           -1.58860182178819       -1.41825247672320        1.08551290165993
H           -3.29741181646004       -1.90300036882318        0.90755638124491
H           -1.75905677655665       -3.76938981429142        0.27289468189989
H           -2.69431450798248       -3.23100856139380       -1.13607672736609
H           -0.99162487998431       -2.73682974615544       -0.95153315707869
