 xtb: 6.7.1 (edcfbbe)
          04092505203D

 41 40  0     0  0            999 V2000
    2.8139   -2.6041    1.8699 C   0  0  0  0  0  0  0  0  0  0  0  0
    1.5624   -2.1139    1.1707 C   0  0  0  0  0  0  0  0  0  0  0  0
    1.6277   -0.6935    0.9546 O   0  0  0  0  0  0  0  0  0  0  0  0
    2.3251   -0.0249   -0.3184 P   0  0  0  0  0  0  0  0  0  0  0  0
    2.9757   -1.2465   -1.6938 S   0  0  0  0  0  0  0  0  0  0  0  0
    3.4886    0.8626    0.2817 O   0  0  0  0  0  0  0  0  0  0  0  0
    3.3578    1.7015    1.4569 C   0  0  0  0  0  0  0  0  0  0  0  0
    3.0350    3.1322    1.0760 C   0  0  0  0  0  0  0  0  0  0  0  0
    0.8607    1.3820   -0.9424 S   0  0  0  0  0  0  0  0  0  0  0  0
   -0.0393    0.2752   -2.0560 C   0  0  0  0  0  0  0  0  0  0  0  0
   -0.8036   -1.1361   -1.2116 S   0  0  0  0  0  0  0  0  0  0  0  0
   -2.0890   -0.0015    0.0281 P   0  0  0  0  0  0  0  0  0  0  0  0
   -2.8829    1.6173   -0.7490 S   0  0  0  0  0  0  0  0  0  0  0  0
   -1.1458    0.1985    1.2840 O   0  0  0  0  0  0  0  0  0  0  0  0
   -1.3006    1.3052    2.1945 C   0  0  0  0  0  0  0  0  0  0  0  0
   -2.5660    1.1796    3.0165 C   0  0  0  0  0  0  0  0  0  0  0  0
   -3.1272   -1.0652    0.5886 O   0  0  0  0  0  0  0  0  0  0  0  0
   -4.3725   -1.3528   -0.0707 C   0  0  0  0  0  0  0  0  0  0  0  0
   -4.1686   -2.0770   -1.3859 C   0  0  0  0  0  0  0  0  0  0  0  0
    3.6812   -2.4214    1.2366 H   0  0  0  0  0  0  0  0  0  0  0  0
    2.9501   -2.0852    2.8149 H   0  0  0  0  0  0  0  0  0  0  0  0
    2.7284   -3.6704    2.0528 H   0  0  0  0  0  0  0  0  0  0  0  0
    0.6670   -2.2569    1.7782 H   0  0  0  0  0  0  0  0  0  0  0  0
    1.4358   -2.6167    0.2068 H   0  0  0  0  0  0  0  0  0  0  0  0
    2.5909    1.2786    2.1092 H   0  0  0  0  0  0  0  0  0  0  0  0
    4.3344    1.6331    1.9392 H   0  0  0  0  0  0  0  0  0  0  0  0
    2.0567    3.1940    0.6032 H   0  0  0  0  0  0  0  0  0  0  0  0
    3.0366    3.7462    1.9712 H   0  0  0  0  0  0  0  0  0  0  0  0
    3.7801    3.5090    0.3810 H   0  0  0  0  0  0  0  0  0  0  0  0
    0.6498   -0.1415   -2.7900 H   0  0  0  0  0  0  0  0  0  0  0  0
   -0.8110    0.8806   -2.5305 H   0  0  0  0  0  0  0  0  0  0  0  0
   -0.4052    1.2603    2.8161 H   0  0  0  0  0  0  0  0  0  0  0  0
   -1.3032    2.2339    1.6145 H   0  0  0  0  0  0  0  0  0  0  0  0
   -2.5913    0.2193    3.5249 H   0  0  0  0  0  0  0  0  0  0  0  0
   -2.6016    1.9800    3.7489 H   0  0  0  0  0  0  0  0  0  0  0  0
   -3.4364    1.2562    2.3659 H   0  0  0  0  0  0  0  0  0  0  0  0
   -4.9139   -1.9685    0.6487 H   0  0  0  0  0  0  0  0  0  0  0  0
   -4.9045   -0.4095   -0.2307 H   0  0  0  0  0  0  0  0  0  0  0  0
   -3.6811   -1.4182   -2.1035 H   0  0  0  0  0  0  0  0  0  0  0  0
   -3.5457   -2.9562   -1.2413 H   0  0  0  0  0  0  0  0  0  0  0  0
   -5.1323   -2.3783   -1.7838 H   0  0  0  0  0  0  0  0  0  0  0  0
  1  2  1  0  0  0  0
  2  3  1  0  0  0  0
  3  4  1  0  0  0  0
  4  5  2  0  0  0  0
  4  6  2  0  0  0  0
  6  7  1  0  0  0  0
  7  8  1  0  0  0  0
  4  9  1  0  0  0  0
  9 10  1  0  0  0  0
 10 11  1  0  0  0  0
 11 12  1  0  0  0  0
 12 13  2  0  0  0  0
 12 14  2  0  0  0  0
 14 15  1  0  0  0  0
 15 16  1  0  0  0  0
 12 17  2  0  0  0  0
 17 18  1  0  0  0  0
 18 19  1  0  0  0  0
  1 20  1  0  0  0  0
  1 21  1  0  0  0  0
  1 22  1  0  0  0  0
  2 23  1  0  0  0  0
  2 24  1  0  0  0  0
  7 25  1  0  0  0  0
  7 26  1  0  0  0  0
  8 27  1  0  0  0  0
  8 28  1  0  0  0  0
  8 29  1  0  0  0  0
 10 30  1  0  0  0  0
 10 31  1  0  0  0  0
 15 32  1  0  0  0  0
 15 33  1  0  0  0  0
 16 34  1  0  0  0  0
 16 35  1  0  0  0  0
 16 36  1  0  0  0  0
 18 37  1  0  0  0  0
 18 38  1  0  0  0  0
 19 39  1  0  0  0  0
 19 40  1  0  0  0  0
 19 41  1  0  0  0  0
M  END
