 xtb: 6.7.1 (edcfbbe)
          04092505213D

 41 40  0     0  0            999 V2000
    2.6280    2.2222    1.4125 C   0  0  0  0  0  0  0  0  0  0  0  0
    1.2745    1.6637    1.7995 C   0  0  0  0  0  0  0  0  0  0  0  0
    1.2323    0.2172    1.8251 O   0  0  0  0  0  0  0  0  0  0  0  0
    1.6570   -0.7464    0.6337 P   0  0  0  0  0  0  0  0  0  0  0  0
    0.9484   -2.5459    0.9423 S   0  0  0  0  0  0  0  0  0  0  0  0
    3.2568   -0.6942    0.5581 O   0  0  0  0  0  0  0  0  0  0  0  0
    4.0665   -1.3055    1.5809 C   0  0  0  0  0  0  0  0  0  0  0  0
    4.6029   -2.6420    1.1064 C   0  0  0  0  0  0  0  0  0  0  0  0
    1.3206    0.2196   -1.2064 S   0  0  0  0  0  0  0  0  0  0  0  0
    0.2750   -1.0232   -2.0067 C   0  0  0  0  0  0  0  0  0  0  0  0
   -1.3774   -0.4160   -2.4680 S   0  0  0  0  0  0  0  0  0  0  0  0
   -2.0687    0.4426   -0.6628 P   0  0  0  0  0  0  0  0  0  0  0  0
   -4.0115    0.6428   -0.5605 S   0  0  0  0  0  0  0  0  0  0  0  0
   -1.2605    1.7984   -0.4302 O   0  0  0  0  0  0  0  0  0  0  0  0
   -1.6661    3.0437   -1.0263 C   0  0  0  0  0  0  0  0  0  0  0  0
   -1.3022    3.1092   -2.4962 C   0  0  0  0  0  0  0  0  0  0  0  0
   -1.3643   -0.4811    0.4278 O   0  0  0  0  0  0  0  0  0  0  0  0
   -2.0948   -0.9229    1.5926 C   0  0  0  0  0  0  0  0  0  0  0  0
   -2.1502    0.1573    2.6505 C   0  0  0  0  0  0  0  0  0  0  0  0
    3.3988    1.8528    2.0847 H   0  0  0  0  0  0  0  0  0  0  0  0
    2.8806    1.9392    0.3917 H   0  0  0  0  0  0  0  0  0  0  0  0
    2.5898    3.3053    1.4779 H   0  0  0  0  0  0  0  0  0  0  0  0
    0.4993    2.0072    1.1110 H   0  0  0  0  0  0  0  0  0  0  0  0
    1.0085    1.9409    2.8216 H   0  0  0  0  0  0  0  0  0  0  0  0
    4.8785   -0.5981    1.7613 H   0  0  0  0  0  0  0  0  0  0  0  0
    3.4725   -1.4233    2.4933 H   0  0  0  0  0  0  0  0  0  0  0  0
    5.2689   -3.0507    1.8596 H   0  0  0  0  0  0  0  0  0  0  0  0
    3.7836   -3.3383    0.9408 H   0  0  0  0  0  0  0  0  0  0  0  0
    5.1463   -2.5122    0.1748 H   0  0  0  0  0  0  0  0  0  0  0  0
    0.1784   -1.8837   -1.3394 H   0  0  0  0  0  0  0  0  0  0  0  0
    0.7358   -1.3067   -2.9500 H   0  0  0  0  0  0  0  0  0  0  0  0
   -2.7456    3.1594   -0.8839 H   0  0  0  0  0  0  0  0  0  0  0  0
   -1.1330    3.8003   -0.4485 H   0  0  0  0  0  0  0  0  0  0  0  0
   -0.2501    2.8699   -2.6324 H   0  0  0  0  0  0  0  0  0  0  0  0
   -1.9008    2.3996   -3.0655 H   0  0  0  0  0  0  0  0  0  0  0  0
   -1.4956    4.1105   -2.8673 H   0  0  0  0  0  0  0  0  0  0  0  0
   -3.1031   -1.2119    1.2810 H   0  0  0  0  0  0  0  0  0  0  0  0
   -1.5475   -1.8031    1.9350 H   0  0  0  0  0  0  0  0  0  0  0  0
   -2.6592    1.0345    2.2532 H   0  0  0  0  0  0  0  0  0  0  0  0
   -2.7007   -0.2150    3.5087 H   0  0  0  0  0  0  0  0  0  0  0  0
   -1.1451    0.4319    2.9572 H   0  0  0  0  0  0  0  0  0  0  0  0
  1  2  1  0  0  0  0
  2  3  1  0  0  0  0
  3  4  2  0  0  0  0
  4  5  2  0  0  0  0
  4  6  1  0  0  0  0
  6  7  1  0  0  0  0
  7  8  1  0  0  0  0
  4  9  1  0  0  0  0
  9 10  1  0  0  0  0
 10 11  1  0  0  0  0
 11 12  1  0  0  0  0
 12 13  2  0  0  0  0
 12 14  1  0  0  0  0
 14 15  1  0  0  0  0
 15 16  1  0  0  0  0
 12 17  1  0  0  0  0
 17 18  1  0  0  0  0
 18 19  1  0  0  0  0
  1 20  1  0  0  0  0
  1 21  1  0  0  0  0
  1 22  1  0  0  0  0
  2 23  1  0  0  0  0
  2 24  1  0  0  0  0
  7 25  1  0  0  0  0
  7 26  1  0  0  0  0
  8 27  1  0  0  0  0
  8 28  1  0  0  0  0
  8 29  1  0  0  0  0
 10 30  1  0  0  0  0
 10 31  1  0  0  0  0
 15 32  1  0  0  0  0
 15 33  1  0  0  0  0
 16 34  1  0  0  0  0
 16 35  1  0  0  0  0
 16 36  1  0  0  0  0
 18 37  1  0  0  0  0
 18 38  1  0  0  0  0
 19 39  1  0  0  0  0
 19 40  1  0  0  0  0
 19 41  1  0  0  0  0
M  END
