 xtb: 6.7.1 (edcfbbe)
          04092505203D

 41 40  0     0  0            999 V2000
    5.4475   -0.1832   -0.8483 C   0  0  0  0  0  0  0  0  0  0  0  0
    4.4499   -0.9289    0.0167 C   0  0  0  0  0  0  0  0  0  0  0  0
    3.4390   -0.0327    0.5192 O   0  0  0  0  0  0  0  0  0  0  0  0
    2.0193    0.1222   -0.1829 P   0  0  0  0  0  0  0  0  0  0  0  0
    2.0447    0.4636   -2.1165 S   0  0  0  0  0  0  0  0  0  0  0  0
    1.3541    1.2098    0.7523 O   0  0  0  0  0  0  0  0  0  0  0  0
    1.4406    2.6204    0.4733 C   0  0  0  0  0  0  0  0  0  0  0  0
    2.8610    3.1295    0.5830 C   0  0  0  0  0  0  0  0  0  0  0  0
    1.0727   -1.6523    0.4332 S   0  0  0  0  0  0  0  0  0  0  0  0
   -0.1599   -1.8903   -0.8963 C   0  0  0  0  0  0  0  0  0  0  0  0
   -1.8518   -1.9435   -0.2726 S   0  0  0  0  0  0  0  0  0  0  0  0
   -2.0572    0.1208    0.1918 P   0  0  0  0  0  0  0  0  0  0  0  0
   -1.3493    1.3688   -1.1418 S   0  0  0  0  0  0  0  0  0  0  0  0
   -1.3859    0.3416    1.6005 O   0  0  0  0  0  0  0  0  0  0  0  0
   -1.4329   -0.5527    2.7412 C   0  0  0  0  0  0  0  0  0  0  0  0
   -2.8428   -0.9098    3.1563 C   0  0  0  0  0  0  0  0  0  0  0  0
   -3.6039    0.3035    0.5002 O   0  0  0  0  0  0  0  0  0  0  0  0
   -4.5736    0.5955   -0.5204 C   0  0  0  0  0  0  0  0  0  0  0  0
   -4.7646   -0.5593   -1.4824 C   0  0  0  0  0  0  0  0  0  0  0  0
    5.8917    0.6341   -0.2870 H   0  0  0  0  0  0  0  0  0  0  0  0
    6.2276   -0.8677   -1.1653 H   0  0  0  0  0  0  0  0  0  0  0  0
    4.9518    0.2208   -1.7285 H   0  0  0  0  0  0  0  0  0  0  0  0
    4.9244   -1.3399    0.9096 H   0  0  0  0  0  0  0  0  0  0  0  0
    3.9716   -1.7357   -0.5463 H   0  0  0  0  0  0  0  0  0  0  0  0
    1.0338    2.8012   -0.5277 H   0  0  0  0  0  0  0  0  0  0  0  0
    0.7807    3.0713    1.2162 H   0  0  0  0  0  0  0  0  0  0  0  0
    2.8659    4.2080    0.4604 H   0  0  0  0  0  0  0  0  0  0  0  0
    3.2787    2.8688    1.5520 H   0  0  0  0  0  0  0  0  0  0  0  0
    3.4727    2.6804   -0.1988 H   0  0  0  0  0  0  0  0  0  0  0  0
    0.0261   -2.8572   -1.3562 H   0  0  0  0  0  0  0  0  0  0  0  0
   -0.0493   -1.0793   -1.6220 H   0  0  0  0  0  0  0  0  0  0  0  0
   -0.8572   -1.4501    2.4962 H   0  0  0  0  0  0  0  0  0  0  0  0
   -0.9121    0.0131    3.5153 H   0  0  0  0  0  0  0  0  0  0  0  0
   -3.3244   -1.5062    2.3844 H   0  0  0  0  0  0  0  0  0  0  0  0
   -2.8013   -1.4869    4.0750 H   0  0  0  0  0  0  0  0  0  0  0  0
   -3.4276   -0.0088    3.3222 H   0  0  0  0  0  0  0  0  0  0  0  0
   -5.4843    0.8057    0.0422 H   0  0  0  0  0  0  0  0  0  0  0  0
   -4.2520    1.4938   -1.0570 H   0  0  0  0  0  0  0  0  0  0  0  0
   -5.6000   -0.3414   -2.1401 H   0  0  0  0  0  0  0  0  0  0  0  0
   -3.8688   -0.6946   -2.0864 H   0  0  0  0  0  0  0  0  0  0  0  0
   -4.9634   -1.4786   -0.9376 H   0  0  0  0  0  0  0  0  0  0  0  0
  1  2  1  0  0  0  0
  2  3  1  0  0  0  0
  3  4  2  0  0  0  0
  4  5  2  0  0  0  0
  4  6  2  0  0  0  0
  6  7  1  0  0  0  0
  7  8  1  0  0  0  0
  4  9  1  0  0  0  0
  9 10  1  0  0  0  0
 10 11  1  0  0  0  0
 11 12  1  0  0  0  0
 12 13  2  0  0  0  0
 12 14  2  0  0  0  0
 14 15  1  0  0  0  0
 15 16  1  0  0  0  0
 12 17  2  0  0  0  0
 17 18  1  0  0  0  0
 18 19  1  0  0  0  0
  1 20  1  0  0  0  0
  1 21  1  0  0  0  0
  1 22  1  0  0  0  0
  2 23  1  0  0  0  0
  2 24  1  0  0  0  0
  7 25  1  0  0  0  0
  7 26  1  0  0  0  0
  8 27  1  0  0  0  0
  8 28  1  0  0  0  0
  8 29  1  0  0  0  0
 10 30  1  0  0  0  0
 10 31  1  0  0  0  0
 15 32  1  0  0  0  0
 15 33  1  0  0  0  0
 16 34  1  0  0  0  0
 16 35  1  0  0  0  0
 16 36  1  0  0  0  0
 18 37  1  0  0  0  0
 18 38  1  0  0  0  0
 19 39  1  0  0  0  0
 19 40  1  0  0  0  0
 19 41  1  0  0  0  0
M  END
