 xtb: 6.7.1 (edcfbbe)
          04092507313D

 38 37  0     0  0            999 V2000
    4.0616   -3.2342   -2.6169 C   0  0  0  0  0  0  0  0  0  0  0  0
    2.8526   -3.2338   -1.7022 C   0  0  0  0  0  0  0  0  0  0  0  0
    2.6963   -1.9046   -1.1671 O   0  0  0  0  0  0  0  0  0  0  0  0
    1.8922   -1.7403   -0.1402 C   0  0  0  0  0  0  0  0  0  0  0  0
    1.2825   -2.6349    0.4037 O   0  0  0  0  0  0  0  0  0  0  0  0
    1.7863   -0.2787    0.2554 C   0  0  0  0  0  0  0  0  0  0  0  0
    0.9352    0.4497   -0.7887 C   0  0  0  0  0  0  0  0  0  0  0  0
    1.4773    0.5057   -1.7368 H   0  0  0  0  0  0  0  0  0  0  0  0
    0.5587    1.8531   -0.3424 C   0  0  0  0  0  0  0  0  0  0  0  0
   -0.5915    2.2427   -0.3246 O   0  0  0  0  0  0  0  0  0  0  0  0
    1.6078    2.5528   -0.0150 O   0  0  0  0  0  0  0  0  0  0  0  0
    1.4145    3.8837    0.5138 C   0  0  0  0  0  0  0  0  0  0  0  0
    1.3157    3.8356    2.0293 C   0  0  0  0  0  0  0  0  0  0  0  0
   -0.6031   -0.4442   -1.1902 S   0  0  0  0  0  0  0  0  0  0  0  0
   -1.8344    0.0526    0.4748 P   0  0  0  0  0  0  0  0  0  0  0  0
   -1.0711    0.6105    2.1889 S   0  0  0  0  0  0  0  0  0  0  0  0
   -3.0121    0.9819   -0.0162 O   0  0  0  0  0  0  0  0  0  0  0  0
   -3.7617    0.7285   -1.2192 C   0  0  0  0  0  0  0  0  0  0  0  0
   -2.6413   -1.3352    0.6078 O   0  0  0  0  0  0  0  0  0  0  0  0
   -2.0410   -2.4856    1.2070 C   0  0  0  0  0  0  0  0  0  0  0  0
    3.9200   -2.5178   -3.4202 H   0  0  0  0  0  0  0  0  0  0  0  0
    4.9534   -2.9650   -2.0589 H   0  0  0  0  0  0  0  0  0  0  0  0
    4.1903   -4.2250   -3.0394 H   0  0  0  0  0  0  0  0  0  0  0  0
    2.9682   -3.9318   -0.8674 H   0  0  0  0  0  0  0  0  0  0  0  0
    1.9358   -3.4882   -2.2427 H   0  0  0  0  0  0  0  0  0  0  0  0
    2.7763    0.1753    0.2794 H   0  0  0  0  0  0  0  0  0  0  0  0
    1.3204   -0.2173    1.2409 H   0  0  0  0  0  0  0  0  0  0  0  0
    2.2946    4.4374    0.1868 H   0  0  0  0  0  0  0  0  0  0  0  0
    0.5066    4.3062    0.0758 H   0  0  0  0  0  0  0  0  0  0  0  0
    0.4681    3.2225    2.3324 H   0  0  0  0  0  0  0  0  0  0  0  0
    2.2201    3.4097    2.4535 H   0  0  0  0  0  0  0  0  0  0  0  0
    1.1774    4.8408    2.4129 H   0  0  0  0  0  0  0  0  0  0  0  0
   -4.2541   -0.2404   -1.1545 H   0  0  0  0  0  0  0  0  0  0  0  0
   -3.0966    0.7567   -2.0823 H   0  0  0  0  0  0  0  0  0  0  0  0
   -4.4900    1.5336   -1.2698 H   0  0  0  0  0  0  0  0  0  0  0  0
   -2.7882   -3.2719    1.1446 H   0  0  0  0  0  0  0  0  0  0  0  0
   -1.7913   -2.2736    2.2476 H   0  0  0  0  0  0  0  0  0  0  0  0
   -1.1333   -2.7740    0.6743 H   0  0  0  0  0  0  0  0  0  0  0  0
  1  2  1  0  0  0  0
  2  3  1  0  0  0  0
  3  4  4  0  0  0  0
  4  5  2  0  0  0  0
  4  6  1  0  0  0  0
  6  7  1  0  0  0  0
  7  8  1  0  0  0  0
  7  9  1  0  0  0  0
  9 10  2  0  0  0  0
  9 11  4  0  0  0  0
 11 12  1  0  0  0  0
 12 13  1  0  0  0  0
  7 14  1  0  0  0  0
 14 15  1  0  0  0  0
 15 16  2  0  0  0  0
 15 17  2  0  0  0  0
 17 18  1  0  0  0  0
 15 19  1  0  0  0  0
 19 20  1  0  0  0  0
  1 21  1  0  0  0  0
  1 22  1  0  0  0  0
  1 23  1  0  0  0  0
  2 24  1  0  0  0  0
  2 25  1  0  0  0  0
  6 26  1  0  0  0  0
  6 27  1  0  0  0  0
 12 28  1  0  0  0  0
 12 29  1  0  0  0  0
 13 30  1  0  0  0  0
 13 31  1  0  0  0  0
 13 32  1  0  0  0  0
 18 33  1  0  0  0  0
 18 34  1  0  0  0  0
 18 35  1  0  0  0  0
 20 36  1  0  0  0  0
 20 37  1  0  0  0  0
 20 38  1  0  0  0  0
M  END
