 xtb: 6.7.1 (edcfbbe)
          04092507313D

 38 37  0     0  0            999 V2000
    4.6247   -3.2657   -2.2081 C   0  0  0  0  0  0  0  0  0  0  0  0
    3.5933   -3.6713   -1.1672 C   0  0  0  0  0  0  0  0  0  0  0  0
    3.2658   -2.5634   -0.3058 O   0  0  0  0  0  0  0  0  0  0  0  0
    2.3223   -1.7266   -0.6903 C   0  0  0  0  0  0  0  0  0  0  0  0
    1.6780   -1.8317   -1.7094 O   0  0  0  0  0  0  0  0  0  0  0  0
    2.1500   -0.6048    0.3180 C   0  0  0  0  0  0  0  0  0  0  0  0
    0.8082    0.0827    0.1234 C   0  0  0  0  0  0  0  0  0  0  0  0
    0.6550    0.2843   -0.9451 H   0  0  0  0  0  0  0  0  0  0  0  0
    0.6690    1.4003    0.8608 C   0  0  0  0  0  0  0  0  0  0  0  0
   -0.3329    1.6913    1.4817 O   0  0  0  0  0  0  0  0  0  0  0  0
    1.7231    2.1583    0.7244 O   0  0  0  0  0  0  0  0  0  0  0  0
    1.6745    3.4990    1.2615 C   0  0  0  0  0  0  0  0  0  0  0  0
    1.0630    4.4519    0.2482 C   0  0  0  0  0  0  0  0  0  0  0  0
   -0.5579   -1.0010    0.6644 S   0  0  0  0  0  0  0  0  0  0  0  0
   -2.1698    0.2773    0.1320 P   0  0  0  0  0  0  0  0  0  0  0  0
   -1.8444    1.6484   -1.2258 S   0  0  0  0  0  0  0  0  0  0  0  0
   -3.2513   -0.8144   -0.3515 O   0  0  0  0  0  0  0  0  0  0  0  0
   -3.0747   -1.5390   -1.5700 C   0  0  0  0  0  0  0  0  0  0  0  0
   -2.9121    0.8032    1.4207 O   0  0  0  0  0  0  0  0  0  0  0  0
   -3.2652   -0.0596    2.5192 C   0  0  0  0  0  0  0  0  0  0  0  0
    4.2096   -2.5103   -2.8715 H   0  0  0  0  0  0  0  0  0  0  0  0
    5.5096   -2.8641   -1.7222 H   0  0  0  0  0  0  0  0  0  0  0  0
    4.9022   -4.1346   -2.7956 H   0  0  0  0  0  0  0  0  0  0  0  0
    3.9863   -4.4323   -0.4931 H   0  0  0  0  0  0  0  0  0  0  0  0
    2.6756   -4.0225   -1.6471 H   0  0  0  0  0  0  0  0  0  0  0  0
    2.9493    0.1223    0.1570 H   0  0  0  0  0  0  0  0  0  0  0  0
    2.2475   -1.0152    1.3228 H   0  0  0  0  0  0  0  0  0  0  0  0
    1.0900    3.4838    2.1850 H   0  0  0  0  0  0  0  0  0  0  0  0
    2.7159    3.7455    1.4671 H   0  0  0  0  0  0  0  0  0  0  0  0
    1.0528    5.4564    0.6577 H   0  0  0  0  0  0  0  0  0  0  0  0
    1.6390    4.4435   -0.6728 H   0  0  0  0  0  0  0  0  0  0  0  0
    0.0409    4.1531    0.0200 H   0  0  0  0  0  0  0  0  0  0  0  0
   -2.2211   -2.2129   -1.4865 H   0  0  0  0  0  0  0  0  0  0  0  0
   -2.9154   -0.8459   -2.3979 H   0  0  0  0  0  0  0  0  0  0  0  0
   -3.9942   -2.1001   -1.7139 H   0  0  0  0  0  0  0  0  0  0  0  0
   -3.9869   -0.8045    2.1885 H   0  0  0  0  0  0  0  0  0  0  0  0
   -3.6989    0.6006    3.2657 H   0  0  0  0  0  0  0  0  0  0  0  0
   -2.3715   -0.5470    2.9091 H   0  0  0  0  0  0  0  0  0  0  0  0
  1  2  1  0  0  0  0
  2  3  1  0  0  0  0
  3  4  1  0  0  0  0
  4  5  2  0  0  0  0
  4  6  1  0  0  0  0
  6  7  1  0  0  0  0
  7  8  1  0  0  0  0
  7  9  1  0  0  0  0
  9 10  2  0  0  0  0
  9 11  4  0  0  0  0
 11 12  1  0  0  0  0
 12 13  1  0  0  0  0
  7 14  1  0  0  0  0
 14 15  1  0  0  0  0
 15 16  2  0  0  0  0
 15 17  1  0  0  0  0
 17 18  1  0  0  0  0
 15 19  2  0  0  0  0
 19 20  1  0  0  0  0
  1 21  1  0  0  0  0
  1 22  1  0  0  0  0
  1 23  1  0  0  0  0
  2 24  1  0  0  0  0
  2 25  1  0  0  0  0
  6 26  1  0  0  0  0
  6 27  1  0  0  0  0
 12 28  1  0  0  0  0
 12 29  1  0  0  0  0
 13 30  1  0  0  0  0
 13 31  1  0  0  0  0
 13 32  1  0  0  0  0
 18 33  1  0  0  0  0
 18 34  1  0  0  0  0
 18 35  1  0  0  0  0
 20 36  1  0  0  0  0
 20 37  1  0  0  0  0
 20 38  1  0  0  0  0
M  END
