 xtb: 6.7.1 (edcfbbe)
          04092505203D

 41 40  0     0  0            999 V2000
    2.3715    2.6796   -0.4074 C   0  0  0  0  0  0  0  0  0  0  0  0
    2.6147    1.4123   -1.2034 C   0  0  0  0  0  0  0  0  0  0  0  0
    1.6975    0.3744   -0.7969 O   0  0  0  0  0  0  0  0  0  0  0  0
    2.0887   -0.7505    0.2477 P   0  0  0  0  0  0  0  0  0  0  0  0
    3.0051   -0.1835    1.8897 S   0  0  0  0  0  0  0  0  0  0  0  0
    2.9496   -1.7299   -0.6622 O   0  0  0  0  0  0  0  0  0  0  0  0
    3.7875   -2.7592   -0.1046 C   0  0  0  0  0  0  0  0  0  0  0  0
    2.9739   -3.8690    0.5288 C   0  0  0  0  0  0  0  0  0  0  0  0
    0.2169   -1.6792    0.4500 S   0  0  0  0  0  0  0  0  0  0  0  0
   -0.3840   -0.6497    1.8204 C   0  0  0  0  0  0  0  0  0  0  0  0
   -0.5383    1.1083    1.3857 S   0  0  0  0  0  0  0  0  0  0  0  0
   -1.8249    0.9516   -0.2775 P   0  0  0  0  0  0  0  0  0  0  0  0
   -1.2236    0.5359   -2.0998 S   0  0  0  0  0  0  0  0  0  0  0  0
   -2.3744    2.4355   -0.1099 O   0  0  0  0  0  0  0  0  0  0  0  0
   -3.0448    3.1318   -1.1763 C   0  0  0  0  0  0  0  0  0  0  0  0
   -4.4101    2.5392   -1.4613 C   0  0  0  0  0  0  0  0  0  0  0  0
   -2.9697   -0.0064    0.2776 O   0  0  0  0  0  0  0  0  0  0  0  0
   -3.5482   -1.1221   -0.4287 C   0  0  0  0  0  0  0  0  0  0  0  0
   -3.3233   -2.4090    0.3397 C   0  0  0  0  0  0  0  0  0  0  0  0
    2.5783    2.5099    0.6474 H   0  0  0  0  0  0  0  0  0  0  0  0
    3.0206    3.4664   -0.7778 H   0  0  0  0  0  0  0  0  0  0  0  0
    1.3338    2.9897   -0.5096 H   0  0  0  0  0  0  0  0  0  0  0  0
    3.6408    1.0560   -1.0769 H   0  0  0  0  0  0  0  0  0  0  0  0
    2.4045    1.5600   -2.2646 H   0  0  0  0  0  0  0  0  0  0  0  0
    4.3657   -3.1160   -0.9579 H   0  0  0  0  0  0  0  0  0  0  0  0
    4.4532   -2.2994    0.6331 H   0  0  0  0  0  0  0  0  0  0  0  0
    2.4551   -3.4929    1.4096 H   0  0  0  0  0  0  0  0  0  0  0  0
    2.2383   -4.2471   -0.1767 H   0  0  0  0  0  0  0  0  0  0  0  0
    3.6370   -4.6746    0.8272 H   0  0  0  0  0  0  0  0  0  0  0  0
    0.3297   -0.6887    2.6436 H   0  0  0  0  0  0  0  0  0  0  0  0
   -1.3523   -1.0460    2.1157 H   0  0  0  0  0  0  0  0  0  0  0  0
   -3.1149    4.1594   -0.8170 H   0  0  0  0  0  0  0  0  0  0  0  0
   -2.4140    3.0910   -2.0707 H   0  0  0  0  0  0  0  0  0  0  0  0
   -4.9920    2.4832   -0.5449 H   0  0  0  0  0  0  0  0  0  0  0  0
   -4.9301    3.1617   -2.1826 H   0  0  0  0  0  0  0  0  0  0  0  0
   -4.2975    1.5376   -1.8751 H   0  0  0  0  0  0  0  0  0  0  0  0
   -4.6136   -0.8973   -0.5129 H   0  0  0  0  0  0  0  0  0  0  0  0
   -3.1041   -1.1758   -1.4288 H   0  0  0  0  0  0  0  0  0  0  0  0
   -3.8527   -3.2123   -0.1624 H   0  0  0  0  0  0  0  0  0  0  0  0
   -2.2631   -2.6539    0.3738 H   0  0  0  0  0  0  0  0  0  0  0  0
   -3.7035   -2.3114    1.3528 H   0  0  0  0  0  0  0  0  0  0  0  0
  1  2  1  0  0  0  0
  2  3  1  0  0  0  0
  3  4  2  0  0  0  0
  4  5  2  0  0  0  0
  4  6  2  0  0  0  0
  6  7  1  0  0  0  0
  7  8  1  0  0  0  0
  4  9  1  0  0  0  0
  9 10  1  0  0  0  0
 10 11  1  0  0  0  0
 11 12  1  0  0  0  0
 12 13  2  0  0  0  0
 12 14  2  0  0  0  0
 14 15  1  0  0  0  0
 15 16  1  0  0  0  0
 12 17  2  0  0  0  0
 17 18  1  0  0  0  0
 18 19  1  0  0  0  0
  1 20  1  0  0  0  0
  1 21  1  0  0  0  0
  1 22  1  0  0  0  0
  2 23  1  0  0  0  0
  2 24  1  0  0  0  0
  7 25  1  0  0  0  0
  7 26  1  0  0  0  0
  8 27  1  0  0  0  0
  8 28  1  0  0  0  0
  8 29  1  0  0  0  0
 10 30  1  0  0  0  0
 10 31  1  0  0  0  0
 15 32  1  0  0  0  0
 15 33  1  0  0  0  0
 16 34  1  0  0  0  0
 16 35  1  0  0  0  0
 16 36  1  0  0  0  0
 18 37  1  0  0  0  0
 18 38  1  0  0  0  0
 19 39  1  0  0  0  0
 19 40  1  0  0  0  0
 19 41  1  0  0  0  0
M  END
