 xtb: 6.7.1 (edcfbbe)
          04092505203D

 41 40  0     0  0            999 V2000
    4.1925   -0.1378   -2.3492 C   0  0  0  0  0  0  0  0  0  0  0  0
    4.3696    0.6013   -1.0385 C   0  0  0  0  0  0  0  0  0  0  0  0
    3.6897   -0.0491    0.0478 O   0  0  0  0  0  0  0  0  0  0  0  0
    2.1057   -0.1505    0.1331 P   0  0  0  0  0  0  0  0  0  0  0  0
    1.1541    1.4820   -0.4242 S   0  0  0  0  0  0  0  0  0  0  0  0
    1.8884   -0.5955    1.6368 O   0  0  0  0  0  0  0  0  0  0  0  0
    1.7227    0.3491    2.7121 C   0  0  0  0  0  0  0  0  0  0  0  0
    3.0179    1.0598    3.0447 C   0  0  0  0  0  0  0  0  0  0  0  0
    1.6689   -1.9746   -0.8188 S   0  0  0  0  0  0  0  0  0  0  0  0
   -0.1017   -1.7389   -1.1264 C   0  0  0  0  0  0  0  0  0  0  0  0
   -1.0512   -1.3696    0.3806 S   0  0  0  0  0  0  0  0  0  0  0  0
   -2.1980    0.3050   -0.3092 P   0  0  0  0  0  0  0  0  0  0  0  0
   -1.9823    0.8283   -2.1784 S   0  0  0  0  0  0  0  0  0  0  0  0
   -1.9096    1.4622    0.7190 O   0  0  0  0  0  0  0  0  0  0  0  0
   -2.1405    1.3208    2.1448 C   0  0  0  0  0  0  0  0  0  0  0  0
   -1.7224    2.6195    2.8021 C   0  0  0  0  0  0  0  0  0  0  0  0
   -3.6910   -0.0826    0.1019 O   0  0  0  0  0  0  0  0  0  0  0  0
   -4.5768   -0.8095   -0.7664 C   0  0  0  0  0  0  0  0  0  0  0  0
   -4.0788   -2.2086   -1.0662 C   0  0  0  0  0  0  0  0  0  0  0  0
    4.4627   -1.1843   -2.2327 H   0  0  0  0  0  0  0  0  0  0  0  0
    3.1538   -0.0777   -2.6731 H   0  0  0  0  0  0  0  0  0  0  0  0
    4.8221    0.3172   -3.1072 H   0  0  0  0  0  0  0  0  0  0  0  0
    3.9889    1.6247   -1.1212 H   0  0  0  0  0  0  0  0  0  0  0  0
    5.4134    0.6166   -0.7219 H   0  0  0  0  0  0  0  0  0  0  0  0
    0.9524    1.0707    2.4209 H   0  0  0  0  0  0  0  0  0  0  0  0
    1.3680   -0.2612    3.5438 H   0  0  0  0  0  0  0  0  0  0  0  0
    2.8747    1.6742    3.9282 H   0  0  0  0  0  0  0  0  0  0  0  0
    3.8053    0.3343    3.2298 H   0  0  0  0  0  0  0  0  0  0  0  0
    3.3154    1.6969    2.2129 H   0  0  0  0  0  0  0  0  0  0  0  0
   -0.4495   -2.6832   -1.5385 H   0  0  0  0  0  0  0  0  0  0  0  0
   -0.2549   -0.9192   -1.8349 H   0  0  0  0  0  0  0  0  0  0  0  0
   -3.2004    1.1114    2.3014 H   0  0  0  0  0  0  0  0  0  0  0  0
   -1.5488    0.4726    2.5034 H   0  0  0  0  0  0  0  0  0  0  0  0
   -1.8209    2.5241    3.8784 H   0  0  0  0  0  0  0  0  0  0  0  0
   -0.6901    2.8505    2.5510 H   0  0  0  0  0  0  0  0  0  0  0  0
   -2.3493    3.4335    2.4499 H   0  0  0  0  0  0  0  0  0  0  0  0
   -5.5194   -0.8256   -0.2174 H   0  0  0  0  0  0  0  0  0  0  0  0
   -4.6938   -0.2384   -1.6924 H   0  0  0  0  0  0  0  0  0  0  0  0
   -3.8485   -2.7362   -0.1441 H   0  0  0  0  0  0  0  0  0  0  0  0
   -4.8449   -2.7504   -1.6113 H   0  0  0  0  0  0  0  0  0  0  0  0
   -3.1815   -2.1553   -1.6815 H   0  0  0  0  0  0  0  0  0  0  0  0
  1  2  1  0  0  0  0
  2  3  1  0  0  0  0
  3  4  2  0  0  0  0
  4  5  2  0  0  0  0
  4  6  2  0  0  0  0
  6  7  1  0  0  0  0
  7  8  1  0  0  0  0
  4  9  1  0  0  0  0
  9 10  1  0  0  0  0
 10 11  1  0  0  0  0
 11 12  1  0  0  0  0
 12 13  2  0  0  0  0
 12 14  2  0  0  0  0
 14 15  1  0  0  0  0
 15 16  1  0  0  0  0
 12 17  2  0  0  0  0
 17 18  1  0  0  0  0
 18 19  1  0  0  0  0
  1 20  1  0  0  0  0
  1 21  1  0  0  0  0
  1 22  1  0  0  0  0
  2 23  1  0  0  0  0
  2 24  1  0  0  0  0
  7 25  1  0  0  0  0
  7 26  1  0  0  0  0
  8 27  1  0  0  0  0
  8 28  1  0  0  0  0
  8 29  1  0  0  0  0
 10 30  1  0  0  0  0
 10 31  1  0  0  0  0
 15 32  1  0  0  0  0
 15 33  1  0  0  0  0
 16 34  1  0  0  0  0
 16 35  1  0  0  0  0
 16 36  1  0  0  0  0
 18 37  1  0  0  0  0
 18 38  1  0  0  0  0
 19 39  1  0  0  0  0
 19 40  1  0  0  0  0
 19 41  1  0  0  0  0
M  END
