 xtb: 6.7.1 (edcfbbe)
          04092507313D

 38 37  0     0  0            999 V2000
    5.0636   -0.4579   -2.3443 C   0  0  0  0  0  0  0  0  0  0  0  0
    4.6088   -0.8538   -0.9533 C   0  0  0  0  0  0  0  0  0  0  0  0
    3.2023   -1.1610   -1.0129 O   0  0  0  0  0  0  0  0  0  0  0  0
    2.5422   -1.2516    0.1235 C   0  0  0  0  0  0  0  0  0  0  0  0
    3.0465   -1.1286    1.2166 O   0  0  0  0  0  0  0  0  0  0  0  0
    1.0695   -1.5424   -0.1083 C   0  0  0  0  0  0  0  0  0  0  0  0
    0.4523   -0.4866   -1.0285 C   0  0  0  0  0  0  0  0  0  0  0  0
    0.9766   -0.4802   -1.9875 H   0  0  0  0  0  0  0  0  0  0  0  0
    0.5249    0.8880   -0.3969 C   0  0  0  0  0  0  0  0  0  0  0  0
   -0.4691    1.5316   -0.1224 O   0  0  0  0  0  0  0  0  0  0  0  0
    1.7537    1.2730   -0.1929 O   0  0  0  0  0  0  0  0  0  0  0  0
    1.9765    2.4848    0.5638 C   0  0  0  0  0  0  0  0  0  0  0  0
    1.9280    2.1871    2.0531 C   0  0  0  0  0  0  0  0  0  0  0  0
   -1.2853   -0.8408   -1.4185 S   0  0  0  0  0  0  0  0  0  0  0  0
   -2.3002   -0.1545    0.3382 P   0  0  0  0  0  0  0  0  0  0  0  0
   -1.4617   -0.0844    2.1103 S   0  0  0  0  0  0  0  0  0  0  0  0
   -3.2437    1.0618   -0.0939 O   0  0  0  0  0  0  0  0  0  0  0  0
   -3.0370    2.4563    0.1222 C   0  0  0  0  0  0  0  0  0  0  0  0
   -3.4109   -1.2956    0.4313 O   0  0  0  0  0  0  0  0  0  0  0  0
   -4.3150   -1.6183   -0.6379 C   0  0  0  0  0  0  0  0  0  0  0  0
    6.1270   -0.2439   -2.3260 H   0  0  0  0  0  0  0  0  0  0  0  0
    4.8734   -1.2681   -3.0415 H   0  0  0  0  0  0  0  0  0  0  0  0
    4.5267    0.4255   -2.6767 H   0  0  0  0  0  0  0  0  0  0  0  0
    4.7541   -0.0480   -0.2277 H   0  0  0  0  0  0  0  0  0  0  0  0
    5.1367   -1.7420   -0.5932 H   0  0  0  0  0  0  0  0  0  0  0  0
    0.5645   -1.5601    0.8603 H   0  0  0  0  0  0  0  0  0  0  0  0
    0.9740   -2.5196   -0.5839 H   0  0  0  0  0  0  0  0  0  0  0  0
    2.9666    2.8179    0.2536 H   0  0  0  0  0  0  0  0  0  0  0  0
    1.2163    3.2180    0.2830 H   0  0  0  0  0  0  0  0  0  0  0  0
    0.9320    1.8547    2.3426 H   0  0  0  0  0  0  0  0  0  0  0  0
    2.6326    1.3959    2.2997 H   0  0  0  0  0  0  0  0  0  0  0  0
    2.1787    3.0825    2.6112 H   0  0  0  0  0  0  0  0  0  0  0  0
   -2.4918    2.6192    1.0517 H   0  0  0  0  0  0  0  0  0  0  0  0
   -4.0323    2.8917    0.1819 H   0  0  0  0  0  0  0  0  0  0  0  0
   -2.4774    2.8784   -0.7103 H   0  0  0  0  0  0  0  0  0  0  0  0
   -4.9615   -0.7682   -0.8476 H   0  0  0  0  0  0  0  0  0  0  0  0
   -4.8937   -2.4636   -0.2742 H   0  0  0  0  0  0  0  0  0  0  0  0
   -3.7540   -1.8926   -1.5317 H   0  0  0  0  0  0  0  0  0  0  0  0
  1  2  1  0  0  0  0
  2  3  1  0  0  0  0
  3  4  1  0  0  0  0
  4  5  2  0  0  0  0
  4  6  1  0  0  0  0
  6  7  1  0  0  0  0
  7  8  1  0  0  0  0
  7  9  1  0  0  0  0
  9 10  2  0  0  0  0
  9 11  4  0  0  0  0
 11 12  1  0  0  0  0
 12 13  1  0  0  0  0
  7 14  1  0  0  0  0
 14 15  1  0  0  0  0
 15 16  2  0  0  0  0
 15 17  2  0  0  0  0
 17 18  1  0  0  0  0
 15 19  1  0  0  0  0
 19 20  1  0  0  0  0
  1 21  1  0  0  0  0
  1 22  1  0  0  0  0
  1 23  1  0  0  0  0
  2 24  1  0  0  0  0
  2 25  1  0  0  0  0
  6 26  1  0  0  0  0
  6 27  1  0  0  0  0
 12 28  1  0  0  0  0
 12 29  1  0  0  0  0
 13 30  1  0  0  0  0
 13 31  1  0  0  0  0
 13 32  1  0  0  0  0
 18 33  1  0  0  0  0
 18 34  1  0  0  0  0
 18 35  1  0  0  0  0
 20 36  1  0  0  0  0
 20 37  1  0  0  0  0
 20 38  1  0  0  0  0
M  END
