41
 xtb: 6.7.1 (edcfbbe)
C            4.19061618622492       -0.90077514322345       -2.18718230076653
C            4.47551169587590       -0.76113329114636       -0.71237904748152
O            3.24479617694288       -0.60081781936184        0.07347553773368
P            2.45052345857554        0.79702543075277        0.18144435830111
S            3.52206092359140        2.42218994658599        0.11024359747983
O            1.57945305240194        0.53320842069274        1.50183126522177
C            2.26070086206126        0.27821738131085        2.78815382055551
C            1.98958341913585       -1.14036030920109        3.21873209284289
S            0.97482064206080        0.84331221706431       -1.31532272815012
C            0.33727860916937       -0.88733766993558       -1.32433403103656
S           -0.86423928805918       -1.37317683973562       -0.02478352491168
P           -2.50134126848946       -0.10948382115353       -0.50820715602120
S           -2.94022440683829        0.03762528630964       -2.39620820501948
O           -2.19298578603325        1.33083019366436        0.12211044305152
C           -1.85501727501429        1.51551229500156        1.54560424733240
C           -3.00095700888719        2.20128121810487        2.24506426988491
O           -3.60835775600705       -0.69461593734845        0.50136003849146
C           -4.64006060567318       -1.66290533133291        0.09744854056052
C           -4.10339546398803       -3.07003820911785        0.02716635728925
H            3.48915188598558       -1.71834472686618       -2.37726049070015
H            3.78643834907189        0.02308228778389       -2.60983284359410
H            5.13009559506483       -1.12761993735573       -2.70147218272473
H            5.13148993061723        0.08820152623960       -0.49937437685319
H            4.92254682320087       -1.66876673587541       -0.30169509114131
H            3.33241777301708        0.47575798910234        2.68269967983456
H            1.83730035721870        1.00646258812458        3.48415920948818
H            0.91460665925533       -1.32106637620522        3.30995621539781
H            2.41274535638018       -1.85417918082926        2.50646963206577
H            2.45181116073976       -1.30988652526029        4.19682791827284
H            1.17308985430687       -1.58612635266293       -1.23028450753031
H           -0.12435124713534       -1.01635395457809       -2.30793980099028
H           -1.61932528454426        0.54744432964330        1.99754868640611
H           -0.95077236123963        2.12896442329172        1.54407033518314
H           -2.71940137036040        2.38637212034718        3.28688257758200
H           -3.22639594991168        3.16241459868771        1.77436674653661
H           -3.89950019841997        1.57823837416601        2.23469136777678
H           -5.40000218039686       -1.56075426754440        0.87457736113535
H           -5.05945354065465       -1.33459699642870       -0.85805418952332
H           -4.94069968011678       -3.74896346256792       -0.16544832646286
H           -3.37824151526090       -3.18676751902029       -0.78288237227525
H           -3.63575889853304       -3.36055542625210        0.97248696664939
