 xtb: 6.7.1 (edcfbbe)
          04032520443D

 10 10  0     0  0            999 V2000
   -1.9445    0.0582   -0.0031 C   0  0  0  0  0  0  0  0  0  0  0  0
   -0.6882   -0.7884    0.0039 C   0  0  0  0  0  0  0  0  0  0  0  0
    0.5264    0.0228    0.0005 N   0  0  0  0  0  0  0  0  0  0  0  0
    0.4321    1.2305    0.0015 O   0  0  0  0  0  0  0  0  0  0  0  0
    1.5895   -0.5722   -0.0026 O   0  0  0  0  0  0  0  0  0  0  0  0
   -2.8151   -0.5889    0.0000 H   0  0  0  0  0  0  0  0  0  0  0  0
   -1.9788    0.7014    0.8721 H   0  0  0  0  0  0  0  0  0  0  0  0
   -1.9767    0.6899   -0.8867 H   0  0  0  0  0  0  0  0  0  0  0  0
   -0.6295   -1.4397   -0.8720 H   0  0  0  0  0  0  0  0  0  0  0  0
   -0.6323   -1.4272    0.8892 H   0  0  0  0  0  0  0  0  0  0  0  0
  1  2  1  0  0  0  0
  2  3  1  0  0  0  0
  3  4  4  0  0  0  0
  3  5  4  0  0  0  0
  4  5  1  0  0  0  0
  1  6  1  0  0  0  0
  1  7  1  0  0  0  0
  1  8  1  0  0  0  0
  2  9  1  0  0  0  0
  2 10  1  0  0  0  0
M  END
