 xtb: 6.7.1 (edcfbbe)
          04092505213D

 41 40  0     0  0            999 V2000
    5.2253    1.3528   -0.2268 C   0  0  0  0  0  0  0  0  0  0  0  0
    4.7135   -0.0631   -0.0549 C   0  0  0  0  0  0  0  0  0  0  0  0
    3.5796   -0.0876    0.8466 O   0  0  0  0  0  0  0  0  0  0  0  0
    2.0797   -0.2318    0.3570 P   0  0  0  0  0  0  0  0  0  0  0  0
    0.8928   -0.3012    1.9054 S   0  0  0  0  0  0  0  0  0  0  0  0
    2.0115   -1.4859   -0.6362 O   0  0  0  0  0  0  0  0  0  0  0  0
    1.7489   -2.8195   -0.1668 C   0  0  0  0  0  0  0  0  0  0  0  0
    2.9067   -3.3676    0.6413 C   0  0  0  0  0  0  0  0  0  0  0  0
    1.8687    1.2964   -1.0776 S   0  0  0  0  0  0  0  0  0  0  0  0
    0.1479    1.0337   -1.5676 C   0  0  0  0  0  0  0  0  0  0  0  0
   -1.0372    1.7241   -0.3663 S   0  0  0  0  0  0  0  0  0  0  0  0
   -2.3656    0.0615   -0.2499 P   0  0  0  0  0  0  0  0  0  0  0  0
   -1.5866   -1.7003   -0.5846 S   0  0  0  0  0  0  0  0  0  0  0  0
   -3.4954    0.3141   -1.3184 O   0  0  0  0  0  0  0  0  0  0  0  0
   -4.2842    1.5291   -1.3970 C   0  0  0  0  0  0  0  0  0  0  0  0
   -3.8611    2.3494   -2.5994 C   0  0  0  0  0  0  0  0  0  0  0  0
   -3.1608    0.3318    1.0964 O   0  0  0  0  0  0  0  0  0  0  0  0
   -2.6237    0.3043    2.4310 C   0  0  0  0  0  0  0  0  0  0  0  0
   -2.5648   -1.1090    2.9730 C   0  0  0  0  0  0  0  0  0  0  0  0
    5.4576    1.7828    0.7434 H   0  0  0  0  0  0  0  0  0  0  0  0
    6.1236    1.3332   -0.8357 H   0  0  0  0  0  0  0  0  0  0  0  0
    4.4761    1.9722   -0.7152 H   0  0  0  0  0  0  0  0  0  0  0  0
    5.4605   -0.6960    0.4278 H   0  0  0  0  0  0  0  0  0  0  0  0
    4.4195   -0.4996   -1.0126 H   0  0  0  0  0  0  0  0  0  0  0  0
    0.8286   -2.8063    0.4253 H   0  0  0  0  0  0  0  0  0  0  0  0
    1.5758   -3.3908   -1.0799 H   0  0  0  0  0  0  0  0  0  0  0  0
    2.6839   -4.3881    0.9363 H   0  0  0  0  0  0  0  0  0  0  0  0
    3.8205   -3.3536    0.0527 H   0  0  0  0  0  0  0  0  0  0  0  0
    3.0490   -2.7639    1.5375 H   0  0  0  0  0  0  0  0  0  0  0  0
   -0.0467   -0.0372   -1.6707 H   0  0  0  0  0  0  0  0  0  0  0  0
    0.0295    1.5544   -2.5141 H   0  0  0  0  0  0  0  0  0  0  0  0
   -5.3145    1.1837   -1.4936 H   0  0  0  0  0  0  0  0  0  0  0  0
   -4.1713    2.0923   -0.4687 H   0  0  0  0  0  0  0  0  0  0  0  0
   -3.8904    1.7356   -3.4954 H   0  0  0  0  0  0  0  0  0  0  0  0
   -4.5441    3.1849   -2.7152 H   0  0  0  0  0  0  0  0  0  0  0  0
   -2.8529    2.7329   -2.4642 H   0  0  0  0  0  0  0  0  0  0  0  0
   -1.6302    0.7599    2.4368 H   0  0  0  0  0  0  0  0  0  0  0  0
   -3.3168    0.9221    3.0052 H   0  0  0  0  0  0  0  0  0  0  0  0
   -2.2446   -1.0791    4.0092 H   0  0  0  0  0  0  0  0  0  0  0  0
   -3.5410   -1.5813    2.9040 H   0  0  0  0  0  0  0  0  0  0  0  0
   -1.8456   -1.6967    2.4061 H   0  0  0  0  0  0  0  0  0  0  0  0
  1  2  1  0  0  0  0
  2  3  1  0  0  0  0
  3  4  2  0  0  0  0
  4  5  2  0  0  0  0
  4  6  1  0  0  0  0
  6  7  1  0  0  0  0
  7  8  1  0  0  0  0
  4  9  1  0  0  0  0
  9 10  1  0  0  0  0
 10 11  1  0  0  0  0
 11 12  1  0  0  0  0
 12 13  2  0  0  0  0
 12 14  2  0  0  0  0
 14 15  1  0  0  0  0
 15 16  1  0  0  0  0
 12 17  2  0  0  0  0
 17 18  1  0  0  0  0
 18 19  1  0  0  0  0
  1 20  1  0  0  0  0
  1 21  1  0  0  0  0
  1 22  1  0  0  0  0
  2 23  1  0  0  0  0
  2 24  1  0  0  0  0
  7 25  1  0  0  0  0
  7 26  1  0  0  0  0
  8 27  1  0  0  0  0
  8 28  1  0  0  0  0
  8 29  1  0  0  0  0
 10 30  1  0  0  0  0
 10 31  1  0  0  0  0
 15 32  1  0  0  0  0
 15 33  1  0  0  0  0
 16 34  1  0  0  0  0
 16 35  1  0  0  0  0
 16 36  1  0  0  0  0
 18 37  1  0  0  0  0
 18 38  1  0  0  0  0
 19 39  1  0  0  0  0
 19 40  1  0  0  0  0
 19 41  1  0  0  0  0
M  END
