 xtb: 6.7.1 (edcfbbe)
          04092507313D

 38 37  0     0  0            999 V2000
    5.2646   -3.1844   -0.2567 C   0  0  0  0  0  0  0  0  0  0  0  0
    4.3828   -2.1601    0.4322 C   0  0  0  0  0  0  0  0  0  0  0  0
    3.1138   -2.1205   -0.2540 O   0  0  0  0  0  0  0  0  0  0  0  0
    2.4421   -0.9955   -0.2894 C   0  0  0  0  0  0  0  0  0  0  0  0
    2.8120    0.0492    0.2128 O   0  0  0  0  0  0  0  0  0  0  0  0
    1.1260   -1.1460   -1.0160 C   0  0  0  0  0  0  0  0  0  0  0  0
    0.5669    0.2275   -1.3619 C   0  0  0  0  0  0  0  0  0  0  0  0
    1.0350    0.6497   -2.2520 H   0  0  0  0  0  0  0  0  0  0  0  0
    0.7021    1.2085   -0.2139 C   0  0  0  0  0  0  0  0  0  0  0  0
    0.1816    1.0107    0.8682 O   0  0  0  0  0  0  0  0  0  0  0  0
    1.3086    2.3084   -0.5717 O   0  0  0  0  0  0  0  0  0  0  0  0
    1.4123    3.3742    0.3956 C   0  0  0  0  0  0  0  0  0  0  0  0
    0.1738    4.2549    0.3474 C   0  0  0  0  0  0  0  0  0  0  0  0
   -1.2233    0.1780   -1.7220 S   0  0  0  0  0  0  0  0  0  0  0  0
   -2.0943   -0.1695    0.1696 P   0  0  0  0  0  0  0  0  0  0  0  0
   -1.4469   -1.5719    1.3914 S   0  0  0  0  0  0  0  0  0  0  0  0
   -2.4227    1.2795    0.7429 O   0  0  0  0  0  0  0  0  0  0  0  0
   -2.5235    1.5252    2.1531 C   0  0  0  0  0  0  0  0  0  0  0  0
   -3.5787   -0.5176   -0.3353 O   0  0  0  0  0  0  0  0  0  0  0  0
   -3.9097   -1.7962   -0.8854 C   0  0  0  0  0  0  0  0  0  0  0  0
    6.2096   -3.2543    0.2714 H   0  0  0  0  0  0  0  0  0  0  0  0
    4.7768   -4.1543   -0.2502 H   0  0  0  0  0  0  0  0  0  0  0  0
    5.4507   -2.8911   -1.2856 H   0  0  0  0  0  0  0  0  0  0  0  0
    4.8202   -1.1575    0.4110 H   0  0  0  0  0  0  0  0  0  0  0  0
    4.1846   -2.4386    1.4711 H   0  0  0  0  0  0  0  0  0  0  0  0
    0.4564   -1.6693   -0.3228 H   0  0  0  0  0  0  0  0  0  0  0  0
    1.2444   -1.7658   -1.9030 H   0  0  0  0  0  0  0  0  0  0  0  0
    1.5463    2.9291    1.3851 H   0  0  0  0  0  0  0  0  0  0  0  0
    2.3080    3.9209    0.1019 H   0  0  0  0  0  0  0  0  0  0  0  0
   -0.7110    3.6670    0.5843 H   0  0  0  0  0  0  0  0  0  0  0  0
    0.2726    5.0545    1.0737 H   0  0  0  0  0  0  0  0  0  0  0  0
    0.0559    4.6805   -0.6452 H   0  0  0  0  0  0  0  0  0  0  0  0
   -1.5784    1.2762    2.6368 H   0  0  0  0  0  0  0  0  0  0  0  0
   -3.3296    0.9327    2.5842 H   0  0  0  0  0  0  0  0  0  0  0  0
   -2.7359    2.5874    2.2460 H   0  0  0  0  0  0  0  0  0  0  0  0
   -3.5455   -1.8648   -1.9098 H   0  0  0  0  0  0  0  0  0  0  0  0
   -4.9947   -1.8556   -0.8595 H   0  0  0  0  0  0  0  0  0  0  0  0
   -3.4693   -2.5887   -0.2771 H   0  0  0  0  0  0  0  0  0  0  0  0
  1  2  1  0  0  0  0
  2  3  1  0  0  0  0
  3  4  4  0  0  0  0
  4  5  2  0  0  0  0
  4  6  1  0  0  0  0
  6  7  1  0  0  0  0
  7  8  1  0  0  0  0
  7  9  1  0  0  0  0
  9 10  2  0  0  0  0
  9 11  4  0  0  0  0
 11 12  1  0  0  0  0
 12 13  1  0  0  0  0
  7 14  1  0  0  0  0
 14 15  1  0  0  0  0
 15 16  2  0  0  0  0
 15 17  1  0  0  0  0
 17 18  1  0  0  0  0
 15 19  1  0  0  0  0
 19 20  1  0  0  0  0
  1 21  1  0  0  0  0
  1 22  1  0  0  0  0
  1 23  1  0  0  0  0
  2 24  1  0  0  0  0
  2 25  1  0  0  0  0
  6 26  1  0  0  0  0
  6 27  1  0  0  0  0
 12 28  1  0  0  0  0
 12 29  1  0  0  0  0
 13 30  1  0  0  0  0
 13 31  1  0  0  0  0
 13 32  1  0  0  0  0
 18 33  1  0  0  0  0
 18 34  1  0  0  0  0
 18 35  1  0  0  0  0
 20 36  1  0  0  0  0
 20 37  1  0  0  0  0
 20 38  1  0  0  0  0
M  END
