 xtb: 6.7.1 (edcfbbe)
          04092507313D

 38 37  0     0  0            999 V2000
    2.8236   -3.4742    0.8063 C   0  0  0  0  0  0  0  0  0  0  0  0
    3.3226   -2.0393    0.8493 C   0  0  0  0  0  0  0  0  0  0  0  0
    3.0385   -1.3595   -0.3902 O   0  0  0  0  0  0  0  0  0  0  0  0
    1.9013   -0.7308   -0.5308 C   0  0  0  0  0  0  0  0  0  0  0  0
    1.0503   -0.6395    0.3416 O   0  0  0  0  0  0  0  0  0  0  0  0
    1.7385   -0.1024   -1.8898 C   0  0  0  0  0  0  0  0  0  0  0  0
    0.6036    0.9068   -1.8516 C   0  0  0  0  0  0  0  0  0  0  0  0
    0.5074    1.4200   -2.8131 H   0  0  0  0  0  0  0  0  0  0  0  0
    0.8067    1.9662   -0.7772 C   0  0  0  0  0  0  0  0  0  0  0  0
    1.8327    2.0752   -0.1434 O   0  0  0  0  0  0  0  0  0  0  0  0
   -0.2288    2.7698   -0.6903 O   0  0  0  0  0  0  0  0  0  0  0  0
   -0.1311    3.9430    0.1443 C   0  0  0  0  0  0  0  0  0  0  0  0
   -0.3761    3.6393    1.6120 C   0  0  0  0  0  0  0  0  0  0  0  0
   -1.0501    0.1277   -1.7050 S   0  0  0  0  0  0  0  0  0  0  0  0
   -1.3858   -0.7563    0.1931 P   0  0  0  0  0  0  0  0  0  0  0  0
   -0.9569   -2.6140    0.6473 S   0  0  0  0  0  0  0  0  0  0  0  0
   -1.1972    0.3776    1.3175 O   0  0  0  0  0  0  0  0  0  0  0  0
   -0.4495    0.1777    2.5156 C   0  0  0  0  0  0  0  0  0  0  0  0
   -2.9881   -0.7840    0.0570 O   0  0  0  0  0  0  0  0  0  0  0  0
   -3.8088    0.3799   -0.1303 C   0  0  0  0  0  0  0  0  0  0  0  0
    1.7374   -3.4975    0.7293 H   0  0  0  0  0  0  0  0  0  0  0  0
    3.2494   -3.9934   -0.0475 H   0  0  0  0  0  0  0  0  0  0  0  0
    3.1179   -3.9822    1.7185 H   0  0  0  0  0  0  0  0  0  0  0  0
    4.4086   -1.9973    0.9354 H   0  0  0  0  0  0  0  0  0  0  0  0
    2.8524   -1.4886    1.6683 H   0  0  0  0  0  0  0  0  0  0  0  0
    1.5219   -0.8863   -2.6180 H   0  0  0  0  0  0  0  0  0  0  0  0
    2.6780    0.3792   -2.1637 H   0  0  0  0  0  0  0  0  0  0  0  0
    0.8631    4.3776    0.0057 H   0  0  0  0  0  0  0  0  0  0  0  0
   -0.8980    4.6057   -0.2571 H   0  0  0  0  0  0  0  0  0  0  0  0
   -1.3116    3.1000    1.7343 H   0  0  0  0  0  0  0  0  0  0  0  0
    0.4339    3.0347    2.0121 H   0  0  0  0  0  0  0  0  0  0  0  0
   -0.4248    4.5720    2.1643 H   0  0  0  0  0  0  0  0  0  0  0  0
    0.5393    0.6197    2.3997 H   0  0  0  0  0  0  0  0  0  0  0  0
   -0.3457   -0.8888    2.7234 H   0  0  0  0  0  0  0  0  0  0  0  0
   -1.0051    0.6690    3.3113 H   0  0  0  0  0  0  0  0  0  0  0  0
   -4.7801    0.1198    0.2841 H   0  0  0  0  0  0  0  0  0  0  0  0
   -3.8922    0.5972   -1.1942 H   0  0  0  0  0  0  0  0  0  0  0  0
   -3.3860    1.2341    0.3961 H   0  0  0  0  0  0  0  0  0  0  0  0
  1  2  1  0  0  0  0
  2  3  1  0  0  0  0
  3  4  4  0  0  0  0
  4  5  2  0  0  0  0
  4  6  1  0  0  0  0
  6  7  1  0  0  0  0
  7  8  1  0  0  0  0
  7  9  1  0  0  0  0
  9 10  2  0  0  0  0
  9 11  4  0  0  0  0
 11 12  1  0  0  0  0
 12 13  1  0  0  0  0
  7 14  1  0  0  0  0
 14 15  1  0  0  0  0
 15 16  2  0  0  0  0
 15 17  1  0  0  0  0
 17 18  1  0  0  0  0
 15 19  1  0  0  0  0
 19 20  1  0  0  0  0
  1 21  1  0  0  0  0
  1 22  1  0  0  0  0
  1 23  1  0  0  0  0
  2 24  1  0  0  0  0
  2 25  1  0  0  0  0
  6 26  1  0  0  0  0
  6 27  1  0  0  0  0
 12 28  1  0  0  0  0
 12 29  1  0  0  0  0
 13 30  1  0  0  0  0
 13 31  1  0  0  0  0
 13 32  1  0  0  0  0
 18 33  1  0  0  0  0
 18 34  1  0  0  0  0
 18 35  1  0  0  0  0
 20 36  1  0  0  0  0
 20 37  1  0  0  0  0
 20 38  1  0  0  0  0
M  END
