 xtb: 6.7.1 (edcfbbe)
          04092507313D

 38 37  0     0  0            999 V2000
    3.2153   -4.6158   -0.5984 C   0  0  0  0  0  0  0  0  0  0  0  0
    3.5574   -3.5520   -1.6295 C   0  0  0  0  0  0  0  0  0  0  0  0
    3.4575   -2.2330   -1.0573 O   0  0  0  0  0  0  0  0  0  0  0  0
    2.2852   -1.6293   -1.0709 C   0  0  0  0  0  0  0  0  0  0  0  0
    1.2776   -2.0895   -1.5611 O   0  0  0  0  0  0  0  0  0  0  0  0
    2.3642   -0.2729   -0.3996 C   0  0  0  0  0  0  0  0  0  0  0  0
    0.9887    0.3642   -0.3138 C   0  0  0  0  0  0  0  0  0  0  0  0
    0.4664    0.2381   -1.2745 H   0  0  0  0  0  0  0  0  0  0  0  0
    1.0325    1.8558   -0.0411 C   0  0  0  0  0  0  0  0  0  0  0  0
    1.9532    2.5650   -0.3718 O   0  0  0  0  0  0  0  0  0  0  0  0
   -0.0735    2.2671    0.5439 O   0  0  0  0  0  0  0  0  0  0  0  0
   -0.2251    3.6715    0.8345 C   0  0  0  0  0  0  0  0  0  0  0  0
    0.3595    4.0022    2.1973 C   0  0  0  0  0  0  0  0  0  0  0  0
   -0.0399   -0.4833    0.9310 S   0  0  0  0  0  0  0  0  0  0  0  0
   -1.9344    0.1741    0.2263 P   0  0  0  0  0  0  0  0  0  0  0  0
   -2.0382    0.8532   -1.6074 S   0  0  0  0  0  0  0  0  0  0  0  0
   -2.8486   -1.1172    0.4944 O   0  0  0  0  0  0  0  0  0  0  0  0
   -2.6979   -2.2958   -0.3016 C   0  0  0  0  0  0  0  0  0  0  0  0
   -2.5415    1.1731    1.2862 O   0  0  0  0  0  0  0  0  0  0  0  0
   -2.6215    0.8468    2.6882 C   0  0  0  0  0  0  0  0  0  0  0  0
    3.3576   -5.5983   -1.0361 H   0  0  0  0  0  0  0  0  0  0  0  0
    3.8579   -4.5134    0.2716 H   0  0  0  0  0  0  0  0  0  0  0  0
    2.1783   -4.5141   -0.2871 H   0  0  0  0  0  0  0  0  0  0  0  0
    2.8832   -3.6124   -2.4886 H   0  0  0  0  0  0  0  0  0  0  0  0
    4.5951   -3.6303   -1.9539 H   0  0  0  0  0  0  0  0  0  0  0  0
    3.0223    0.3762   -0.9825 H   0  0  0  0  0  0  0  0  0  0  0  0
    2.8062   -0.3960    0.5900 H   0  0  0  0  0  0  0  0  0  0  0  0
    0.2701    4.2406    0.0432 H   0  0  0  0  0  0  0  0  0  0  0  0
   -1.3027    3.8371    0.8030 H   0  0  0  0  0  0  0  0  0  0  0  0
    0.1682    5.0464    2.4209 H   0  0  0  0  0  0  0  0  0  0  0  0
   -0.0975    3.3814    2.9630 H   0  0  0  0  0  0  0  0  0  0  0  0
    1.4336    3.8321    2.1940 H   0  0  0  0  0  0  0  0  0  0  0  0
   -3.4635   -2.9844    0.0455 H   0  0  0  0  0  0  0  0  0  0  0  0
   -1.7036   -2.7217   -0.1620 H   0  0  0  0  0  0  0  0  0  0  0  0
   -2.8445   -2.0574   -1.3562 H   0  0  0  0  0  0  0  0  0  0  0  0
   -2.9400    1.7644    3.1761 H   0  0  0  0  0  0  0  0  0  0  0  0
   -1.6440    0.5300    3.0527 H   0  0  0  0  0  0  0  0  0  0  0  0
   -3.3506    0.0538    2.8418 H   0  0  0  0  0  0  0  0  0  0  0  0
  1  2  1  0  0  0  0
  2  3  1  0  0  0  0
  3  4  1  0  0  0  0
  4  5  2  0  0  0  0
  4  6  1  0  0  0  0
  6  7  1  0  0  0  0
  7  8  1  0  0  0  0
  7  9  1  0  0  0  0
  9 10  2  0  0  0  0
  9 11  1  0  0  0  0
 11 12  1  0  0  0  0
 12 13  1  0  0  0  0
  7 14  1  0  0  0  0
 14 15  1  0  0  0  0
 15 16  2  0  0  0  0
 15 17  1  0  0  0  0
 17 18  1  0  0  0  0
 15 19  2  0  0  0  0
 19 20  1  0  0  0  0
  1 21  1  0  0  0  0
  1 22  1  0  0  0  0
  1 23  1  0  0  0  0
  2 24  1  0  0  0  0
  2 25  1  0  0  0  0
  6 26  1  0  0  0  0
  6 27  1  0  0  0  0
 12 28  1  0  0  0  0
 12 29  1  0  0  0  0
 13 30  1  0  0  0  0
 13 31  1  0  0  0  0
 13 32  1  0  0  0  0
 18 33  1  0  0  0  0
 18 34  1  0  0  0  0
 18 35  1  0  0  0  0
 20 36  1  0  0  0  0
 20 37  1  0  0  0  0
 20 38  1  0  0  0  0
M  END
