 xtb: 6.7.1 (edcfbbe)
          04092505213D

 41 40  0     0  0            999 V2000
    3.6633   -2.2713    1.5011 C   0  0  0  0  0  0  0  0  0  0  0  0
    2.3150   -2.2088    0.8133 C   0  0  0  0  0  0  0  0  0  0  0  0
    1.8424   -0.8489    0.7238 O   0  0  0  0  0  0  0  0  0  0  0  0
    2.4577    0.1814   -0.3347 P   0  0  0  0  0  0  0  0  0  0  0  0
    3.2189   -0.6238   -1.9416 S   0  0  0  0  0  0  0  0  0  0  0  0
    3.5108    1.0716    0.4425 O   0  0  0  0  0  0  0  0  0  0  0  0
    3.1948    1.7281    1.6969 C   0  0  0  0  0  0  0  0  0  0  0  0
    4.5031    2.0806    2.3736 C   0  0  0  0  0  0  0  0  0  0  0  0
    0.7997    1.4733   -0.5985 S   0  0  0  0  0  0  0  0  0  0  0  0
   -0.0654    0.4125   -1.7867 C   0  0  0  0  0  0  0  0  0  0  0  0
   -0.9579   -0.9393   -0.9960 S   0  0  0  0  0  0  0  0  0  0  0  0
   -2.5017    0.2761   -0.1460 P   0  0  0  0  0  0  0  0  0  0  0  0
   -3.0688    1.7352   -1.3239 S   0  0  0  0  0  0  0  0  0  0  0  0
   -2.0231    0.8121    1.2528 O   0  0  0  0  0  0  0  0  0  0  0  0
   -2.0250    0.0743    2.5016 C   0  0  0  0  0  0  0  0  0  0  0  0
   -1.1243   -1.1412    2.4586 C   0  0  0  0  0  0  0  0  0  0  0  0
   -3.6215   -0.7771    0.2433 O   0  0  0  0  0  0  0  0  0  0  0  0
   -4.4258   -1.4158   -0.7712 C   0  0  0  0  0  0  0  0  0  0  0  0
   -5.6501   -1.9978   -0.0944 C   0  0  0  0  0  0  0  0  0  0  0  0
    3.9802   -3.3063    1.5797 H   0  0  0  0  0  0  0  0  0  0  0  0
    4.3984   -1.7203    0.9144 H   0  0  0  0  0  0  0  0  0  0  0  0
    3.6048   -1.8367    2.4957 H   0  0  0  0  0  0  0  0  0  0  0  0
    1.5398   -2.7273    1.3787 H   0  0  0  0  0  0  0  0  0  0  0  0
    2.3757   -2.6232   -0.1974 H   0  0  0  0  0  0  0  0  0  0  0  0
    2.6058    2.6198    1.4677 H   0  0  0  0  0  0  0  0  0  0  0  0
    2.5956    1.0484    2.3078 H   0  0  0  0  0  0  0  0  0  0  0  0
    5.0926    2.7237    1.7267 H   0  0  0  0  0  0  0  0  0  0  0  0
    4.2945    2.5998    3.3035 H   0  0  0  0  0  0  0  0  0  0  0  0
    5.0736    1.1801    2.5829 H   0  0  0  0  0  0  0  0  0  0  0  0
    0.6603   -0.0290   -2.4710 H   0  0  0  0  0  0  0  0  0  0  0  0
   -0.7774    1.0484   -2.3148 H   0  0  0  0  0  0  0  0  0  0  0  0
   -1.6718    0.8135    3.2224 H   0  0  0  0  0  0  0  0  0  0  0  0
   -3.0546   -0.2072    2.7283 H   0  0  0  0  0  0  0  0  0  0  0  0
   -1.0835   -1.5870    3.4476 H   0  0  0  0  0  0  0  0  0  0  0  0
   -1.5111   -1.8735    1.7524 H   0  0  0  0  0  0  0  0  0  0  0  0
   -0.1218   -0.8546    2.1510 H   0  0  0  0  0  0  0  0  0  0  0  0
   -4.6988   -0.6671   -1.5220 H   0  0  0  0  0  0  0  0  0  0  0  0
   -3.8204   -2.1931   -1.2445 H   0  0  0  0  0  0  0  0  0  0  0  0
   -5.3516   -2.7171    0.6626 H   0  0  0  0  0  0  0  0  0  0  0  0
   -6.2277   -1.2072    0.3764 H   0  0  0  0  0  0  0  0  0  0  0  0
   -6.2644   -2.4939   -0.8385 H   0  0  0  0  0  0  0  0  0  0  0  0
  1  2  1  0  0  0  0
  2  3  1  0  0  0  0
  3  4  1  0  0  0  0
  4  5  2  0  0  0  0
  4  6  2  0  0  0  0
  6  7  1  0  0  0  0
  7  8  1  0  0  0  0
  4  9  1  0  0  0  0
  9 10  1  0  0  0  0
 10 11  1  0  0  0  0
 11 12  1  0  0  0  0
 12 13  2  0  0  0  0
 12 14  2  0  0  0  0
 14 15  1  0  0  0  0
 15 16  1  0  0  0  0
 12 17  2  0  0  0  0
 17 18  1  0  0  0  0
 18 19  1  0  0  0  0
  1 20  1  0  0  0  0
  1 21  1  0  0  0  0
  1 22  1  0  0  0  0
  2 23  1  0  0  0  0
  2 24  1  0  0  0  0
  7 25  1  0  0  0  0
  7 26  1  0  0  0  0
  8 27  1  0  0  0  0
  8 28  1  0  0  0  0
  8 29  1  0  0  0  0
 10 30  1  0  0  0  0
 10 31  1  0  0  0  0
 15 32  1  0  0  0  0
 15 33  1  0  0  0  0
 16 34  1  0  0  0  0
 16 35  1  0  0  0  0
 16 36  1  0  0  0  0
 18 37  1  0  0  0  0
 18 38  1  0  0  0  0
 19 39  1  0  0  0  0
 19 40  1  0  0  0  0
 19 41  1  0  0  0  0
M  END
