15
CONF2
C -0.7338716693 -1.1930298368 0.2326289854
C 0.7239358564 -1.1639785463 -0.2280688190
O 1.3827358934 0.0014230049 0.2342832373
C 0.7215492880 1.1654696111 -0.2280868026
C -0.7363045769 1.1915084081 0.2326485290
N -1.3949029947 -0.0014301777 -0.2775372956
H -0.7529885649 -1.2405882840 1.3358178398
H -1.2289741300 -2.0758831919 -0.1722604310
H 1.2827667422 -2.0061501311 0.1806169660
H 0.7569976617 -1.1906775102 -1.3258671050
H 1.2786533646 2.0087796175 0.1805951097
H 0.7545719204 1.1922431735 -1.3258835469
H -0.7555290196 1.2390015857 1.3358426136
H -1.2332040566 2.0733539789 -0.1722367519
H -2.3726663568 -0.0024310270 -0.0074270418
15
CONF1
C -0.7386742010 -1.1914777207 -0.2310857295
C 0.7272479847 -1.1715226996 0.2202521130
O 1.3861941511 0.0013885751 -0.2327425281
C 0.7247322050 1.1729027869 0.2202723576
C -0.7412240911 1.1900649065 -0.2310807811
N -1.4567710278 -0.0014571057 0.2028218462
H -1.2400717806 -2.0748485290 0.1644759036
H -0.7763999559 -1.2174179146 -1.3236204754
H 0.7815750660 -1.2159626120 1.3199071515
H 1.2864759791 -2.0060860439 -0.2030524546
H 0.7789856507 1.2175188354 1.3199275852
H 1.2821803462 2.0086336172 -0.2030351531
H -1.2445052017 2.0723853173 0.1644614340
H -0.7790176260 1.2158817988 -1.3236096302
H -1.5162955814 -0.0015073842 1.2183557088
