15
CONF1
C -0.7331347380 -1.2015327181 -0.2301671419
C 0.7175164397 -1.1795878029 0.2183999988
O 1.3891941365 0.0014524207 -0.2568613716
C 0.7150736137 1.1810906737 0.2184121753
C -0.7356279771 1.2000162387 -0.2301472566
N -1.4830575513 -0.0015417882 0.1927617105
H -1.2214473904 -2.0964211755 0.1705786651
H -0.7729232561 -1.2647432589 -1.3248606279
H 0.7741308077 -1.2109656678 1.3194179178
H 1.2696599691 -2.0338799993 -0.1864422782
H 0.7716383063 1.2125919092 1.3194290877
H 1.2654286601 2.0365337843 -0.1864359405
H -1.2258089694 2.0938768808 0.1706104609
H -0.7755496060 1.2631542174 -1.3248398700
H -1.4806599796 -0.0015481604 1.2123920876
15
CONF2
C -0.7307664639 -1.1956048959 0.2169159836
C 0.7165798919 -1.1793694212 -0.2299230780
O 1.3924039882 0.0014247252 0.2404840963
C 0.7141649895 1.1808312285 -0.2299190535
C -0.7332123662 1.1941035128 0.2169251522
N -1.4190758555 -0.0014529813 -0.3053523321
H -0.7602144304 -1.2422334000 1.3198199329
H -1.2131606618 -2.0991033080 -0.1709825199
H 1.2584556178 -2.0324036678 0.1880183580
H 0.7793857269 -1.2213868551 -1.3286841472
H 1.2542891686 2.0349759868 0.1880217938
H 0.7768802434 1.2229843083 -1.3286802332
H -0.7627542592 1.2406584353 1.3198297168
H -1.2174632197 2.0966109532 -0.1709663587
H -2.3627428516 -0.0024241400 0.0695580172
