 xtb: 6.7.1 (edcfbbe)
          04092505213D

 41 40  0     0  0            999 V2000
    5.2911   -0.1069   -0.0641 C   0  0  0  0  0  0  0  0  0  0  0  0
    4.2416   -1.0080   -0.6802 C   0  0  0  0  0  0  0  0  0  0  0  0
    3.1051   -0.2650   -1.1750 O   0  0  0  0  0  0  0  0  0  0  0  0
    2.1221    0.5679   -0.2484 P   0  0  0  0  0  0  0  0  0  0  0  0
    2.6600    2.3301    0.4171 S   0  0  0  0  0  0  0  0  0  0  0  0
    1.7887   -0.4966    0.8871 O   0  0  0  0  0  0  0  0  0  0  0  0
    1.4020   -0.1662    2.2298 C   0  0  0  0  0  0  0  0  0  0  0  0
    2.2632   -0.9630    3.1898 C   0  0  0  0  0  0  0  0  0  0  0  0
    0.4911    0.6708   -1.5824 S   0  0  0  0  0  0  0  0  0  0  0  0
    0.0567   -1.0876   -1.7244 C   0  0  0  0  0  0  0  0  0  0  0  0
   -0.7317   -1.7756   -0.2376 S   0  0  0  0  0  0  0  0  0  0  0  0
   -2.2280   -0.3174   -0.0124 P   0  0  0  0  0  0  0  0  0  0  0  0
   -3.0913    0.3997   -1.6251 S   0  0  0  0  0  0  0  0  0  0  0  0
   -1.4460    0.7017    0.9265 O   0  0  0  0  0  0  0  0  0  0  0  0
   -2.0039    1.9864    1.2830 C   0  0  0  0  0  0  0  0  0  0  0  0
   -1.4145    3.0859    0.4220 C   0  0  0  0  0  0  0  0  0  0  0  0
   -3.2496   -0.9433    1.0347 O   0  0  0  0  0  0  0  0  0  0  0  0
   -4.3987   -1.7075    0.6271 C   0  0  0  0  0  0  0  0  0  0  0  0
   -4.0058   -3.0420    0.0276 C   0  0  0  0  0  0  0  0  0  0  0  0
    5.6060    0.6503   -0.7782 H   0  0  0  0  0  0  0  0  0  0  0  0
    4.8873    0.3987    0.8121 H   0  0  0  0  0  0  0  0  0  0  0  0
    6.1497   -0.7016    0.2317 H   0  0  0  0  0  0  0  0  0  0  0  0
    3.8838   -1.7441    0.0433 H   0  0  0  0  0  0  0  0  0  0  0  0
    4.6219   -1.5126   -1.5699 H   0  0  0  0  0  0  0  0  0  0  0  0
    1.5304    0.9115    2.3795 H   0  0  0  0  0  0  0  0  0  0  0  0
    0.3456   -0.4252    2.3330 H   0  0  0  0  0  0  0  0  0  0  0  0
    2.1618   -2.0250    2.9850 H   0  0  0  0  0  0  0  0  0  0  0  0
    3.3068   -0.6769    3.0850 H   0  0  0  0  0  0  0  0  0  0  0  0
    1.9407   -0.7611    4.2059 H   0  0  0  0  0  0  0  0  0  0  0  0
    0.9478   -1.6800   -1.9141 H   0  0  0  0  0  0  0  0  0  0  0  0
   -0.6414   -1.1414   -2.5584 H   0  0  0  0  0  0  0  0  0  0  0  0
   -3.0915    1.9470    1.1761 H   0  0  0  0  0  0  0  0  0  0  0  0
   -1.7430    2.1218    2.3341 H   0  0  0  0  0  0  0  0  0  0  0  0
   -1.6763    2.9306   -0.6229 H   0  0  0  0  0  0  0  0  0  0  0  0
   -1.8039    4.0449    0.7479 H   0  0  0  0  0  0  0  0  0  0  0  0
   -0.3296    3.0952    0.5073 H   0  0  0  0  0  0  0  0  0  0  0  0
   -4.9721   -1.8290    1.5470 H   0  0  0  0  0  0  0  0  0  0  0  0
   -4.9696   -1.1142   -0.0944 H   0  0  0  0  0  0  0  0  0  0  0  0
   -3.3482   -3.5816    0.7042 H   0  0  0  0  0  0  0  0  0  0  0  0
   -4.8991   -3.6305   -0.1554 H   0  0  0  0  0  0  0  0  0  0  0  0
   -3.4864   -2.8853   -0.9169 H   0  0  0  0  0  0  0  0  0  0  0  0
  1  2  1  0  0  0  0
  2  3  1  0  0  0  0
  3  4  2  0  0  0  0
  4  5  2  0  0  0  0
  4  6  2  0  0  0  0
  6  7  1  0  0  0  0
  7  8  1  0  0  0  0
  4  9  1  0  0  0  0
  9 10  1  0  0  0  0
 10 11  1  0  0  0  0
 11 12  1  0  0  0  0
 12 13  2  0  0  0  0
 12 14  1  0  0  0  0
 14 15  1  0  0  0  0
 15 16  1  0  0  0  0
 12 17  2  0  0  0  0
 17 18  1  0  0  0  0
 18 19  1  0  0  0  0
  1 20  1  0  0  0  0
  1 21  1  0  0  0  0
  1 22  1  0  0  0  0
  2 23  1  0  0  0  0
  2 24  1  0  0  0  0
  7 25  1  0  0  0  0
  7 26  1  0  0  0  0
  8 27  1  0  0  0  0
  8 28  1  0  0  0  0
  8 29  1  0  0  0  0
 10 30  1  0  0  0  0
 10 31  1  0  0  0  0
 15 32  1  0  0  0  0
 15 33  1  0  0  0  0
 16 34  1  0  0  0  0
 16 35  1  0  0  0  0
 16 36  1  0  0  0  0
 18 37  1  0  0  0  0
 18 38  1  0  0  0  0
 19 39  1  0  0  0  0
 19 40  1  0  0  0  0
 19 41  1  0  0  0  0
M  END
