 xtb: 6.7.1 (edcfbbe)
          04092507313D

 38 37  0     0  0            999 V2000
    5.0133    0.4390   -0.8482 C   0  0  0  0  0  0  0  0  0  0  0  0
    4.6611   -1.0172   -1.1034 C   0  0  0  0  0  0  0  0  0  0  0  0
    3.2374   -1.1737   -1.2652 O   0  0  0  0  0  0  0  0  0  0  0  0
    2.5097   -1.5037   -0.2174 C   0  0  0  0  0  0  0  0  0  0  0  0
    2.9476   -1.7312    0.8869 O   0  0  0  0  0  0  0  0  0  0  0  0
    1.0366   -1.5938   -0.5826 C   0  0  0  0  0  0  0  0  0  0  0  0
    0.5356   -0.2513   -1.1213 C   0  0  0  0  0  0  0  0  0  0  0  0
    1.1425    0.0515   -1.9779 H   0  0  0  0  0  0  0  0  0  0  0  0
    0.5936    0.8121   -0.0456 C   0  0  0  0  0  0  0  0  0  0  0  0
   -0.4107    1.3509    0.3843 O   0  0  0  0  0  0  0  0  0  0  0  0
    1.8041    1.0447    0.3650 O   0  0  0  0  0  0  0  0  0  0  0  0
    2.0040    1.9968    1.4365 C   0  0  0  0  0  0  0  0  0  0  0  0
    2.2412    3.3885    0.8762 C   0  0  0  0  0  0  0  0  0  0  0  0
   -1.1815   -0.3423   -1.7292 S   0  0  0  0  0  0  0  0  0  0  0  0
   -2.2971   -0.1707    0.0575 P   0  0  0  0  0  0  0  0  0  0  0  0
   -1.7307   -0.8548    1.8205 S   0  0  0  0  0  0  0  0  0  0  0  0
   -3.1296    1.1943    0.0903 O   0  0  0  0  0  0  0  0  0  0  0  0
   -2.9258    2.2908    0.9800 C   0  0  0  0  0  0  0  0  0  0  0  0
   -3.4331   -1.1109   -0.5843 O   0  0  0  0  0  0  0  0  0  0  0  0
   -4.6189   -1.4487    0.1381 C   0  0  0  0  0  0  0  0  0  0  0  0
    6.0911    0.5395   -0.7741 H   0  0  0  0  0  0  0  0  0  0  0  0
    4.6497    1.0600   -1.6618 H   0  0  0  0  0  0  0  0  0  0  0  0
    4.5596    0.7716    0.0815 H   0  0  0  0  0  0  0  0  0  0  0  0
    4.9899   -1.6500   -0.2744 H   0  0  0  0  0  0  0  0  0  0  0  0
    5.0873   -1.3704   -2.0430 H   0  0  0  0  0  0  0  0  0  0  0  0
    0.4748   -1.8925    0.3050 H   0  0  0  0  0  0  0  0  0  0  0  0
    0.9122   -2.3472   -1.3612 H   0  0  0  0  0  0  0  0  0  0  0  0
    1.1280    1.9731    2.0896 H   0  0  0  0  0  0  0  0  0  0  0  0
    2.8767    1.6216    1.9722 H   0  0  0  0  0  0  0  0  0  0  0  0
    1.3618    3.7325    0.3372 H   0  0  0  0  0  0  0  0  0  0  0  0
    2.4403    4.0702    1.6962 H   0  0  0  0  0  0  0  0  0  0  0  0
    3.0922    3.3825    0.2011 H   0  0  0  0  0  0  0  0  0  0  0  0
   -2.2666    3.0200    0.5140 H   0  0  0  0  0  0  0  0  0  0  0  0
   -2.4861    1.9402    1.9147 H   0  0  0  0  0  0  0  0  0  0  0  0
   -3.9110    2.7168    1.1578 H   0  0  0  0  0  0  0  0  0  0  0  0
   -5.2940   -0.5941    0.1708 H   0  0  0  0  0  0  0  0  0  0  0  0
   -4.3636   -1.7583    1.1541 H   0  0  0  0  0  0  0  0  0  0  0  0
   -5.0709   -2.2737   -0.4068 H   0  0  0  0  0  0  0  0  0  0  0  0
  1  2  1  0  0  0  0
  2  3  1  0  0  0  0
  3  4  1  0  0  0  0
  4  5  2  0  0  0  0
  4  6  1  0  0  0  0
  6  7  1  0  0  0  0
  7  8  1  0  0  0  0
  7  9  1  0  0  0  0
  9 10  2  0  0  0  0
  9 11  4  0  0  0  0
 11 12  1  0  0  0  0
 12 13  1  0  0  0  0
  7 14  1  0  0  0  0
 14 15  1  0  0  0  0
 15 16  2  0  0  0  0
 15 17  2  0  0  0  0
 17 18  1  0  0  0  0
 15 19  1  0  0  0  0
 19 20  1  0  0  0  0
  1 21  1  0  0  0  0
  1 22  1  0  0  0  0
  1 23  1  0  0  0  0
  2 24  1  0  0  0  0
  2 25  1  0  0  0  0
  6 26  1  0  0  0  0
  6 27  1  0  0  0  0
 12 28  1  0  0  0  0
 12 29  1  0  0  0  0
 13 30  1  0  0  0  0
 13 31  1  0  0  0  0
 13 32  1  0  0  0  0
 18 33  1  0  0  0  0
 18 34  1  0  0  0  0
 18 35  1  0  0  0  0
 20 36  1  0  0  0  0
 20 37  1  0  0  0  0
 20 38  1  0  0  0  0
M  END
