  17
 
 C         -1.4711039880        0.0033160908        0.2520190316
 C         -0.7305986992        1.2463030087       -0.2330609463
 C          0.7229203925        1.1977545810        0.2322516876
 N          1.3540413784       -0.0029079662       -0.2896193124
 C          0.7176702571       -1.2007706328        0.2323013259
 C         -0.7360659231       -1.2429590072       -0.2329346147
 H         -2.4970999623        0.0055531279       -0.1188270207
 H         -1.5061763324        0.0034624209        1.3446979383
 H         -0.7469043933        1.2754441716       -1.3230131383
 H         -1.2074855753        2.1506351436        0.1472693111
 H          1.2688626850        2.0645663565       -0.1471921267
 H          0.7483569731        1.2307543641        1.3381355190
 H          2.3397751860       -0.0050685241       -0.0499951346
 H          1.2597890196       -2.0699857962       -0.1471189041
 H          0.7429972088       -1.2338335528        1.3381787036
 H         -0.7525209862       -1.2721147433       -1.3228910508
 H         -1.2169215701       -2.1451426623        0.1474749738
          17
        -19.24637823
 C         -1.4682573861        0.0001431497       -0.2355692482
 C         -0.7285130791        1.2506931553        0.2371444480
 C          0.7294920822        1.1989823047       -0.2350099518
 N          1.4285529338       -0.0001441534        0.1985982304
 C          0.7292069233       -1.1991459960       -0.2350020958
 C         -0.7287733659       -1.2505312851        0.2371557465
 H         -1.5134095637        0.0001358141       -1.3272870650
 H         -2.4920329664        0.0002809385        0.1445750184
 H         -1.2111954481        2.1483216195       -0.1516007811
 H         -0.7526044203        1.2980343659        1.3292858938
 H          0.7588185143        1.2142124877       -1.3290607431
 H          1.2815992848        2.0663487739        0.1339290741
 H          1.4812003854       -0.0001373184        1.2138854793
 H          0.7585541781       -1.2143674163       -1.3290557665
 H          1.2812175795       -2.0666243368        0.1339005231
 H         -1.2116079814       -2.1480511666       -0.1516056804
 H         -0.7528375859       -1.2978346674        1.3292752166
