 xtb: 6.7.1 (edcfbbe)
          04032519423D

 20 20  0     0  0            999 V2000
    0.8454    1.2670   -1.0257 C   0  0  0  0  0  0  0  0  0  0  0  0
    1.4462    0.3066    0.0016 C   0  0  0  0  0  0  0  0  0  0  0  0
    2.4690    0.0520   -0.3042 H   0  0  0  0  0  0  0  0  0  0  0  0
    0.6412   -1.0050    0.0203 C   0  0  0  0  0  0  0  0  0  0  0  0
    0.6354   -1.3783    1.0555 H   0  0  0  0  0  0  0  0  0  0  0  0
   -0.8201   -0.7763   -0.4324 C   0  0  0  0  0  0  0  0  0  0  0  0
   -0.8782   -0.9192   -1.5170 H   0  0  0  0  0  0  0  0  0  0  0  0
   -1.2788    0.6533   -0.0889 C   0  0  0  0  0  0  0  0  0  0  0  0
   -2.3077    0.8041   -0.4417 H   0  0  0  0  0  0  0  0  0  0  0  0
   -0.4973    1.6342   -0.7130 O   0  0  0  0  0  0  0  0  0  0  0  0
   -1.3385    0.8233    1.2976 O   0  0  0  0  0  0  0  0  0  0  0  0
   -1.6911   -1.7152    0.1448 O   0  0  0  0  0  0  0  0  0  0  0  0
    1.3014   -1.9170   -0.8233 O   0  0  0  0  0  0  0  0  0  0  0  0
    1.4318    0.8441    1.3067 O   0  0  0  0  0  0  0  0  0  0  0  0
    0.8824    0.7901   -2.0122 H   0  0  0  0  0  0  0  0  0  0  0  0
    1.3917    2.2109   -1.0615 H   0  0  0  0  0  0  0  0  0  0  0  0
   -0.4253    0.9153    1.6417 H   0  0  0  0  0  0  0  0  0  0  0  0
   -1.9342   -1.4030    1.0318 H   0  0  0  0  0  0  0  0  0  0  0  0
    0.8238   -2.7591   -0.8159 H   0  0  0  0  0  0  0  0  0  0  0  0
    2.0039    1.6243    1.3461 H   0  0  0  0  0  0  0  0  0  0  0  0
  1  2  1  0  0  0  0
  2  3  1  0  0  0  0
  2  4  1  0  0  0  0
  4  5  1  0  0  0  0
  4  6  1  0  0  0  0
  6  7  1  0  0  0  0
  6  8  1  0  0  0  0
  8  9  1  0  0  0  0
  1 10  1  0  0  0  0
  8 10  1  0  0  0  0
  8 11  1  0  0  0  0
  6 12  1  0  0  0  0
  4 13  1  0  0  0  0
  2 14  1  0  0  0  0
  1 15  1  0  0  0  0
  1 16  1  0  0  0  0
 11 17  1  0  0  0  0
 12 18  1  0  0  0  0
 13 19  1  0  0  0  0
 14 20  1  0  0  0  0
M  END
