 xtb: 6.7.1 (edcfbbe)
          04092505213D

 41 40  0     0  0            999 V2000
    3.1720   -1.0645    2.6946 C   0  0  0  0  0  0  0  0  0  0  0  0
    4.2709   -0.5691    1.7756 C   0  0  0  0  0  0  0  0  0  0  0  0
    3.8054    0.4382    0.8565 O   0  0  0  0  0  0  0  0  0  0  0  0
    2.8158    0.0959   -0.3272 P   0  0  0  0  0  0  0  0  0  0  0  0
    3.1078   -1.6125   -1.2514 S   0  0  0  0  0  0  0  0  0  0  0  0
    3.1317    1.3982   -1.1735 O   0  0  0  0  0  0  0  0  0  0  0  0
    2.7428    1.5497   -2.5489 C   0  0  0  0  0  0  0  0  0  0  0  0
    1.3568    2.1513   -2.6819 C   0  0  0  0  0  0  0  0  0  0  0  0
    0.8729    0.3790    0.4880 S   0  0  0  0  0  0  0  0  0  0  0  0
    0.0360   -1.0653   -0.2634 C   0  0  0  0  0  0  0  0  0  0  0  0
   -1.4162   -1.5054    0.6906 S   0  0  0  0  0  0  0  0  0  0  0  0
   -2.6039    0.1530    0.0490 P   0  0  0  0  0  0  0  0  0  0  0  0
   -2.2765    0.7752   -1.7760 S   0  0  0  0  0  0  0  0  0  0  0  0
   -2.3533    1.3339    1.0588 O   0  0  0  0  0  0  0  0  0  0  0  0
   -2.4892    1.1947    2.4969 C   0  0  0  0  0  0  0  0  0  0  0  0
   -1.3472    1.9375    3.1590 C   0  0  0  0  0  0  0  0  0  0  0  0
   -4.0780   -0.2892    0.4471 O   0  0  0  0  0  0  0  0  0  0  0  0
   -4.6922   -1.5508    0.1216 C   0  0  0  0  0  0  0  0  0  0  0  0
   -4.6452   -1.8609   -1.3598 C   0  0  0  0  0  0  0  0  0  0  0  0
    2.4291   -1.6235    2.1271 H   0  0  0  0  0  0  0  0  0  0  0  0
    3.6031   -1.7188    3.4456 H   0  0  0  0  0  0  0  0  0  0  0  0
    2.6840   -0.2258    3.1845 H   0  0  0  0  0  0  0  0  0  0  0  0
    4.6945   -1.3968    1.1977 H   0  0  0  0  0  0  0  0  0  0  0  0
    5.0621   -0.0646    2.3320 H   0  0  0  0  0  0  0  0  0  0  0  0
    3.4984    2.2169   -2.9677 H   0  0  0  0  0  0  0  0  0  0  0  0
    2.8024    0.5751   -3.0462 H   0  0  0  0  0  0  0  0  0  0  0  0
    1.1668    2.3851   -3.7245 H   0  0  0  0  0  0  0  0  0  0  0  0
    0.5868    1.4610   -2.3418 H   0  0  0  0  0  0  0  0  0  0  0  0
    1.2872    3.0623   -2.0933 H   0  0  0  0  0  0  0  0  0  0  0  0
    0.7140   -1.9179   -0.2674 H   0  0  0  0  0  0  0  0  0  0  0  0
   -0.2787   -0.8095   -1.2777 H   0  0  0  0  0  0  0  0  0  0  0  0
   -3.4575    1.6211    2.7642 H   0  0  0  0  0  0  0  0  0  0  0  0
   -2.4747    0.1319    2.7550 H   0  0  0  0  0  0  0  0  0  0  0  0
   -1.4489    1.8619    4.2367 H   0  0  0  0  0  0  0  0  0  0  0  0
   -0.3964    1.5076    2.8532 H   0  0  0  0  0  0  0  0  0  0  0  0
   -1.3638    2.9831    2.8658 H   0  0  0  0  0  0  0  0  0  0  0  0
   -4.1882   -2.3323    0.6965 H   0  0  0  0  0  0  0  0  0  0  0  0
   -5.7188   -1.4329    0.4726 H   0  0  0  0  0  0  0  0  0  0  0  0
   -5.0830   -1.0467   -1.9327 H   0  0  0  0  0  0  0  0  0  0  0  0
   -3.6138   -1.9927   -1.6842 H   0  0  0  0  0  0  0  0  0  0  0  0
   -5.1962   -2.7751   -1.5552 H   0  0  0  0  0  0  0  0  0  0  0  0
  1  2  1  0  0  0  0
  2  3  1  0  0  0  0
  3  4  2  0  0  0  0
  4  5  2  0  0  0  0
  4  6  2  0  0  0  0
  6  7  1  0  0  0  0
  7  8  1  0  0  0  0
  4  9  1  0  0  0  0
  9 10  1  0  0  0  0
 10 11  1  0  0  0  0
 11 12  1  0  0  0  0
 12 13  2  0  0  0  0
 12 14  2  0  0  0  0
 14 15  1  0  0  0  0
 15 16  1  0  0  0  0
 12 17  2  0  0  0  0
 17 18  1  0  0  0  0
 18 19  1  0  0  0  0
  1 20  1  0  0  0  0
  1 21  1  0  0  0  0
  1 22  1  0  0  0  0
  2 23  1  0  0  0  0
  2 24  1  0  0  0  0
  7 25  1  0  0  0  0
  7 26  1  0  0  0  0
  8 27  1  0  0  0  0
  8 28  1  0  0  0  0
  8 29  1  0  0  0  0
 10 30  1  0  0  0  0
 10 31  1  0  0  0  0
 15 32  1  0  0  0  0
 15 33  1  0  0  0  0
 16 34  1  0  0  0  0
 16 35  1  0  0  0  0
 16 36  1  0  0  0  0
 18 37  1  0  0  0  0
 18 38  1  0  0  0  0
 19 39  1  0  0  0  0
 19 40  1  0  0  0  0
 19 41  1  0  0  0  0
M  END
