41
 xtb: 6.7.1 (edcfbbe)
C            3.40048711112024        2.59534099590953        2.04224810998585
C            2.02396201359210        1.97903158646694        2.00854228356599
O            1.77475482658470        1.26619406792472        0.74651570567262
P            2.45685005282823       -0.14799461712268        0.41242185028438
S            2.76739241901588       -1.34958905253849        1.91358047386920
O            3.73725512132801        0.31716301880647       -0.44554259330102
C            4.94679115273495       -0.50674187679944       -0.59114503687181
C            4.76422892447021       -1.60978214761269       -1.60318380934145
S            1.17750472196923       -0.86487332506404       -1.12130282813123
C           -0.08822518712153       -1.74138143891383       -0.12328688902364
S           -1.27679793318428       -0.70709297248718        0.81571881777222
P           -2.56122417498536       -0.03167710788370       -0.74050188506772
S           -2.88812538139838       -1.31094769405486       -2.17137235353854
O           -2.01088683254246        1.35598940717297       -1.31585070149676
C           -1.25265946279183        2.36056271609639       -0.54452325379445
C           -2.06579566783674        3.02242141722909        0.53912921103977
O           -3.82607978197027        0.45292395219285        0.12699358951311
C           -4.76492321812243       -0.52495521027342        0.70549458210920
C           -6.12488233506437       -0.31766386667929        0.09089921587585
H            3.49226285206630        3.19617007867143        2.95298465828612
H            4.18346917725069        1.83105121140913        2.05926751732857
H            3.55803101167233        3.24901944208414        1.17972535899360
H            1.23784397223157        2.73753325088312        2.02766063382883
H            1.86468122421638        1.27915236412357        2.83460644795830
H            5.70409541544396        0.21145840119791       -0.91126449476860
H            5.21682065910089       -0.89497056285408        0.39531102092630
H            4.04577564033700       -2.35913319501271       -1.25989336647282
H            4.43198271953403       -1.20933386909462       -2.56522990256587
H            5.72868095879245       -2.10610511022307       -1.75167350954408
H            0.41239784216631       -2.37120037828440        0.61840426015245
H           -0.63983022401113       -2.37344625761943       -0.82617846316135
H           -0.35984426076037        1.87197589966493       -0.14746127341920
H           -0.95379286649310        3.07749444768377       -1.31166952760404
H           -2.30086962271730        2.33528613487442        1.35629998546740
H           -1.47037989850958        3.84472921524380        0.95001927633456
H           -2.99573546834008        3.43800831721532        0.14086376273040
H           -4.39223805716007       -1.53847055507619        0.52962815884494
H           -4.76420805386818       -0.32944017844280        1.78037191134412
H           -6.10247801808962       -0.52322311299794       -0.98276108317513
H           -6.83656013509320       -1.00358519538604        0.56139316836511
H           -6.47418540580532        0.70580686326055        0.25169789186577
