 xtb: 6.7.1 (edcfbbe)
          04032520193D

 20 20  0     0  0            999 V2000
    0.6085    1.7027   -0.0491 C   0  0  0  0  0  0  0  0  0  0  0  0
    1.3961    0.4072   -0.2752 C   0  0  0  0  0  0  0  0  0  0  0  0
    1.5871    0.2730   -1.3504 H   0  0  0  0  0  0  0  0  0  0  0  0
    0.5571   -0.7867    0.2087 C   0  0  0  0  0  0  0  0  0  0  0  0
    0.3988   -0.6860    1.2940 H   0  0  0  0  0  0  0  0  0  0  0  0
   -0.8050   -0.7683   -0.4997 C   0  0  0  0  0  0  0  0  0  0  0  0
   -0.6438   -0.9332   -1.5693 H   0  0  0  0  0  0  0  0  0  0  0  0
   -1.4715    0.6084   -0.2891 C   0  0  0  0  0  0  0  0  0  0  0  0
   -2.3607    0.6764   -0.9310 H   0  0  0  0  0  0  0  0  0  0  0  0
   -0.6475    1.6651   -0.7103 O   0  0  0  0  0  0  0  0  0  0  0  0
   -1.8076    0.7058    1.0602 O   0  0  0  0  0  0  0  0  0  0  0  0
   -1.6587   -1.7929   -0.0789 O   0  0  0  0  0  0  0  0  0  0  0  0
    1.1980   -2.0045   -0.0778 O   0  0  0  0  0  0  0  0  0  0  0  0
    2.5999    0.3870    0.4556 O   0  0  0  0  0  0  0  0  0  0  0  0
    1.1242    2.5646   -0.4730 H   0  0  0  0  0  0  0  0  0  0  0  0
    0.4683    1.8459    1.0295 H   0  0  0  0  0  0  0  0  0  0  0  0
   -2.3839    1.4703    1.2109 H   0  0  0  0  0  0  0  0  0  0  0  0
   -1.8736   -1.6538    0.8572 H   0  0  0  0  0  0  0  0  0  0  0  0
    2.0890   -1.9698    0.3031 H   0  0  0  0  0  0  0  0  0  0  0  0
    3.2044    1.0628    0.1184 H   0  0  0  0  0  0  0  0  0  0  0  0
  1  2  1  0  0  0  0
  2  3  1  0  0  0  0
  2  4  1  0  0  0  0
  4  5  1  0  0  0  0
  4  6  1  0  0  0  0
  6  7  1  0  0  0  0
  6  8  1  0  0  0  0
  8  9  1  0  0  0  0
  1 10  1  0  0  0  0
  8 10  1  0  0  0  0
  8 11  1  0  0  0  0
  6 12  1  0  0  0  0
  4 13  1  0  0  0  0
  2 14  1  0  0  0  0
  1 15  1  0  0  0  0
  1 16  1  0  0  0  0
 11 17  1  0  0  0  0
 12 18  1  0  0  0  0
 13 19  1  0  0  0  0
 14 20  1  0  0  0  0
M  END
