 xtb: 6.7.1 (edcfbbe)
          04092507313D

 38 37  0     0  0            999 V2000
    3.3717   -2.1432    1.1885 C   0  0  0  0  0  0  0  0  0  0  0  0
    2.9283   -2.8658   -0.0730 C   0  0  0  0  0  0  0  0  0  0  0  0
    2.6462   -1.9229   -1.1255 O   0  0  0  0  0  0  0  0  0  0  0  0
    1.4605   -1.3745   -1.1817 C   0  0  0  0  0  0  0  0  0  0  0  0
    0.5347   -1.6624   -0.4377 O   0  0  0  0  0  0  0  0  0  0  0  0
    1.3268   -0.3643   -2.2952 C   0  0  0  0  0  0  0  0  0  0  0  0
    0.5194    0.8259   -1.7926 C   0  0  0  0  0  0  0  0  0  0  0  0
    0.4684    1.6128   -2.5500 H   0  0  0  0  0  0  0  0  0  0  0  0
    1.1370    1.4044   -0.5281 C   0  0  0  0  0  0  0  0  0  0  0  0
    2.1880    1.0037   -0.0799 O   0  0  0  0  0  0  0  0  0  0  0  0
    0.4314    2.3993   -0.0441 O   0  0  0  0  0  0  0  0  0  0  0  0
    0.9431    3.0899    1.1150 C   0  0  0  0  0  0  0  0  0  0  0  0
    0.1843    4.3935    1.2590 C   0  0  0  0  0  0  0  0  0  0  0  0
   -1.2450    0.4330   -1.5140 S   0  0  0  0  0  0  0  0  0  0  0  0
   -1.4295   -0.4323    0.4293 P   0  0  0  0  0  0  0  0  0  0  0  0
   -0.1900   -0.1665    1.9264 S   0  0  0  0  0  0  0  0  0  0  0  0
   -2.8538    0.2495    0.7912 O   0  0  0  0  0  0  0  0  0  0  0  0
   -2.9445    1.6245    1.1611 C   0  0  0  0  0  0  0  0  0  0  0  0
   -1.9380   -1.9207    0.2632 O   0  0  0  0  0  0  0  0  0  0  0  0
   -3.0631   -2.2626   -0.5674 C   0  0  0  0  0  0  0  0  0  0  0  0
    2.5656   -1.5159    1.5670 H   0  0  0  0  0  0  0  0  0  0  0  0
    3.6374   -2.8701    1.9487 H   0  0  0  0  0  0  0  0  0  0  0  0
    4.2266   -1.5078    0.9753 H   0  0  0  0  0  0  0  0  0  0  0  0
    2.0292   -3.4593    0.1176 H   0  0  0  0  0  0  0  0  0  0  0  0
    3.7246   -3.4910   -0.4768 H   0  0  0  0  0  0  0  0  0  0  0  0
    0.8092   -0.8284   -3.1363 H   0  0  0  0  0  0  0  0  0  0  0  0
    2.3236   -0.0500   -2.6025 H   0  0  0  0  0  0  0  0  0  0  0  0
    0.8079    2.4343    1.9818 H   0  0  0  0  0  0  0  0  0  0  0  0
    2.0153    3.2491    0.9672 H   0  0  0  0  0  0  0  0  0  0  0  0
    0.3110    5.0005    0.3675 H   0  0  0  0  0  0  0  0  0  0  0  0
   -0.8735    4.1970    1.4060 H   0  0  0  0  0  0  0  0  0  0  0  0
    0.5696    4.9316    2.1183 H   0  0  0  0  0  0  0  0  0  0  0  0
   -3.9768    1.7795    1.4641 H   0  0  0  0  0  0  0  0  0  0  0  0
   -2.6932    2.2587    0.3098 H   0  0  0  0  0  0  0  0  0  0  0  0
   -2.2666    1.8299    1.9919 H   0  0  0  0  0  0  0  0  0  0  0  0
   -2.9315   -1.8523   -1.5689 H   0  0  0  0  0  0  0  0  0  0  0  0
   -3.9793   -1.8765   -0.1239 H   0  0  0  0  0  0  0  0  0  0  0  0
   -3.0720   -3.3493   -0.5946 H   0  0  0  0  0  0  0  0  0  0  0  0
  1  2  1  0  0  0  0
  2  3  1  0  0  0  0
  3  4  4  0  0  0  0
  4  5  2  0  0  0  0
  4  6  1  0  0  0  0
  6  7  1  0  0  0  0
  7  8  1  0  0  0  0
  7  9  1  0  0  0  0
  9 10  2  0  0  0  0
  9 11  4  0  0  0  0
 11 12  1  0  0  0  0
 12 13  1  0  0  0  0
  7 14  1  0  0  0  0
 14 15  1  0  0  0  0
 15 16  2  0  0  0  0
 15 17  1  0  0  0  0
 17 18  1  0  0  0  0
 15 19  2  0  0  0  0
 19 20  1  0  0  0  0
  1 21  1  0  0  0  0
  1 22  1  0  0  0  0
  1 23  1  0  0  0  0
  2 24  1  0  0  0  0
  2 25  1  0  0  0  0
  6 26  1  0  0  0  0
  6 27  1  0  0  0  0
 12 28  1  0  0  0  0
 12 29  1  0  0  0  0
 13 30  1  0  0  0  0
 13 31  1  0  0  0  0
 13 32  1  0  0  0  0
 18 33  1  0  0  0  0
 18 34  1  0  0  0  0
 18 35  1  0  0  0  0
 20 36  1  0  0  0  0
 20 37  1  0  0  0  0
 20 38  1  0  0  0  0
M  END
