 xtb: 6.7.1 (edcfbbe)
          04092505213D

 41 40  0     0  0            999 V2000
    4.9855   -2.6964   -0.7771 C   0  0  0  0  0  0  0  0  0  0  0  0
    4.0362   -1.5948   -1.2029 C   0  0  0  0  0  0  0  0  0  0  0  0
    3.0516   -1.4356   -0.1619 O   0  0  0  0  0  0  0  0  0  0  0  0
    2.1240   -0.1523   -0.0774 P   0  0  0  0  0  0  0  0  0  0  0  0
    3.0510    1.5760   -0.1965 S   0  0  0  0  0  0  0  0  0  0  0  0
    1.3175   -0.4390    1.2519 O   0  0  0  0  0  0  0  0  0  0  0  0
    1.6689    0.1792    2.5078 C   0  0  0  0  0  0  0  0  0  0  0  0
    2.9794   -0.3604    3.0392 C   0  0  0  0  0  0  0  0  0  0  0  0
    0.6623   -0.5122   -1.5660 S   0  0  0  0  0  0  0  0  0  0  0  0
   -0.0264    1.1649   -1.5581 C   0  0  0  0  0  0  0  0  0  0  0  0
   -0.8495    1.5719   -0.0041 S   0  0  0  0  0  0  0  0  0  0  0  0
   -2.6699    0.4977   -0.3287 P   0  0  0  0  0  0  0  0  0  0  0  0
   -3.1824    0.3660   -2.2128 S   0  0  0  0  0  0  0  0  0  0  0  0
   -3.7195    1.2913    0.5348 O   0  0  0  0  0  0  0  0  0  0  0  0
   -3.8974    1.1747    1.9696 C   0  0  0  0  0  0  0  0  0  0  0  0
   -2.6316    1.4794    2.7406 C   0  0  0  0  0  0  0  0  0  0  0  0
   -2.5721   -0.8925    0.4445 O   0  0  0  0  0  0  0  0  0  0  0  0
   -2.2047   -2.1480   -0.1633 C   0  0  0  0  0  0  0  0  0  0  0  0
   -1.1525   -2.8310    0.6867 C   0  0  0  0  0  0  0  0  0  0  0  0
    4.4316   -3.6148   -0.6065 H   0  0  0  0  0  0  0  0  0  0  0  0
    5.7181   -2.8579   -1.5609 H   0  0  0  0  0  0  0  0  0  0  0  0
    5.4970   -2.4176    0.1396 H   0  0  0  0  0  0  0  0  0  0  0  0
    3.5163   -1.8513   -2.1301 H   0  0  0  0  0  0  0  0  0  0  0  0
    4.5585   -0.6417   -1.3383 H   0  0  0  0  0  0  0  0  0  0  0  0
    1.7216    1.2622    2.3594 H   0  0  0  0  0  0  0  0  0  0  0  0
    0.8324   -0.0636    3.1641 H   0  0  0  0  0  0  0  0  0  0  0  0
    3.7888   -0.0873    2.3629 H   0  0  0  0  0  0  0  0  0  0  0  0
    3.1770    0.0677    4.0168 H   0  0  0  0  0  0  0  0  0  0  0  0
    2.9368   -1.4434    3.1170 H   0  0  0  0  0  0  0  0  0  0  0  0
   -0.7459    1.2162   -2.3764 H   0  0  0  0  0  0  0  0  0  0  0  0
    0.7808    1.8857   -1.6869 H   0  0  0  0  0  0  0  0  0  0  0  0
   -4.6837    1.9012    2.1796 H   0  0  0  0  0  0  0  0  0  0  0  0
   -4.2533    0.1657    2.1858 H   0  0  0  0  0  0  0  0  0  0  0  0
   -2.2457    2.4589    2.4680 H   0  0  0  0  0  0  0  0  0  0  0  0
   -2.8498    1.4630    3.8040 H   0  0  0  0  0  0  0  0  0  0  0  0
   -1.8716    0.7316    2.5216 H   0  0  0  0  0  0  0  0  0  0  0  0
   -3.1199   -2.7430   -0.2090 H   0  0  0  0  0  0  0  0  0  0  0  0
   -1.8490   -1.9714   -1.1828 H   0  0  0  0  0  0  0  0  0  0  0  0
   -0.9215   -3.7968    0.2496 H   0  0  0  0  0  0  0  0  0  0  0  0
   -0.2439   -2.2353    0.7247 H   0  0  0  0  0  0  0  0  0  0  0  0
   -1.5246   -2.9722    1.6973 H   0  0  0  0  0  0  0  0  0  0  0  0
  1  2  1  0  0  0  0
  2  3  1  0  0  0  0
  3  4  2  0  0  0  0
  4  5  2  0  0  0  0
  4  6  2  0  0  0  0
  6  7  1  0  0  0  0
  7  8  1  0  0  0  0
  4  9  1  0  0  0  0
  9 10  1  0  0  0  0
 10 11  1  0  0  0  0
 11 12  1  0  0  0  0
 12 13  2  0  0  0  0
 12 14  2  0  0  0  0
 14 15  1  0  0  0  0
 15 16  1  0  0  0  0
 12 17  2  0  0  0  0
 17 18  1  0  0  0  0
 18 19  1  0  0  0  0
  1 20  1  0  0  0  0
  1 21  1  0  0  0  0
  1 22  1  0  0  0  0
  2 23  1  0  0  0  0
  2 24  1  0  0  0  0
  7 25  1  0  0  0  0
  7 26  1  0  0  0  0
  8 27  1  0  0  0  0
  8 28  1  0  0  0  0
  8 29  1  0  0  0  0
 10 30  1  0  0  0  0
 10 31  1  0  0  0  0
 15 32  1  0  0  0  0
 15 33  1  0  0  0  0
 16 34  1  0  0  0  0
 16 35  1  0  0  0  0
 16 36  1  0  0  0  0
 18 37  1  0  0  0  0
 18 38  1  0  0  0  0
 19 39  1  0  0  0  0
 19 40  1  0  0  0  0
 19 41  1  0  0  0  0
M  END
