38
 xtb: 6.7.1 (edcfbbe)
C            5.23194404917059       -1.68110756184334       -1.79875220059985
C            4.51755910702056       -0.42190730999929       -1.36843725162875
O            3.06544250810272       -0.62153922498082       -1.35113328316623
C            2.53999255428955       -1.18154432106214       -0.25288844472827
O            3.19201001176971       -1.55355279826572        0.70678756513312
C            1.04348956304953       -1.35462613773176       -0.36410860218794
C            0.31322516658691       -0.18101617810082       -1.01760797422216
H            0.71157834837893       -0.01659314274316       -2.02781719837962
C            0.47226819925701        1.16468458383427       -0.31702359299700
O           -0.19418353372368        2.15210417683413       -0.56356123003255
O            1.49417509453772        1.13476681663701        0.53328515285354
C            1.85101245097993        2.39186001134329        1.19774782707350
C            3.08908841831692        2.11236473062120        2.00793950958508
S           -1.46213613366285       -0.58829436227578       -1.36197885906600
P           -2.47811695799343       -0.08493185349937        0.43549771111381
S           -1.46820338466627       -0.20265033254543        2.08844045321381
O           -3.13230534346073        1.36821367144516        0.25981258187471
C           -3.81976645661510        1.75770257425160       -0.96693430235612
O           -3.78215549678321       -1.01965314514162        0.27033688335395
C           -3.69342599777151       -2.44762315619797        0.54105442373046
H            4.88006397825702       -2.00985802121030       -2.78086326227245
H            6.30393973947281       -1.47182666848674       -1.87144012469425
H            5.08804901444007       -2.49046265246723       -1.07829352801527
H            4.65941616127159        0.38584530747899       -2.08856669367812
H            4.83203428453604       -0.08242413130881       -0.37826648540125
H            0.65185025879184       -1.55196718531741        0.63461039934807
H            0.88083702301195       -2.25009462509554       -0.97547192910263
H            2.02147811277584        3.14672392440219        0.42580344205706
H            1.00319601988472        2.69487231023254        1.81856301417170
H            3.90655246692687        1.77508362799569        1.36394160484352
H            3.40064268767540        3.03325141906422        2.50953144828469
H            2.89853110538019        1.35094768309493        2.76928341765165
H           -4.30773794637833        2.70432732129529       -0.73504500560637
H           -4.56603943947065        1.01033823796326       -1.24638331001529
H           -3.09106152460297        1.89676130837926       -1.76905198561811
H           -2.91050419300630       -2.90678616222285       -0.06866039624114
H           -4.66581872593174       -2.85794385649705        0.26997546645848
H           -3.49523526009535       -2.61050001761650        1.60291036127023
