 xtb: 6.7.1 (edcfbbe)
          04092505203D

 41 40  0     0  0            999 V2000
    4.6454   -1.3282   -1.4800 C   0  0  0  0  0  0  0  0  0  0  0  0
    4.2804    0.1299   -1.2804 C   0  0  0  0  0  0  0  0  0  0  0  0
    3.4362    0.2976   -0.1232 O   0  0  0  0  0  0  0  0  0  0  0  0
    1.8744    0.5785   -0.2480 P   0  0  0  0  0  0  0  0  0  0  0  0
    1.4267    2.0713   -1.4262 S   0  0  0  0  0  0  0  0  0  0  0  0
    1.4803    0.8257    1.2538 O   0  0  0  0  0  0  0  0  0  0  0  0
    1.9742    0.0218    2.3552 C   0  0  0  0  0  0  0  0  0  0  0  0
    3.1558    0.6955    3.0192 C   0  0  0  0  0  0  0  0  0  0  0  0
    1.1159   -1.3207   -0.8695 S   0  0  0  0  0  0  0  0  0  0  0  0
   -0.1435   -0.8004   -2.0649 C   0  0  0  0  0  0  0  0  0  0  0  0
   -1.8543   -1.1604   -1.5708 S   0  0  0  0  0  0  0  0  0  0  0  0
   -1.8731   -0.3272    0.3923 P   0  0  0  0  0  0  0  0  0  0  0  0
   -1.0864   -1.3642    1.8505 S   0  0  0  0  0  0  0  0  0  0  0  0
   -3.4127    0.0024    0.6081 O   0  0  0  0  0  0  0  0  0  0  0  0
   -4.3310   -0.9609    1.1544 C   0  0  0  0  0  0  0  0  0  0  0  0
   -4.5622   -2.1236    0.2119 C   0  0  0  0  0  0  0  0  0  0  0  0
   -1.2261    1.1050    0.2140 O   0  0  0  0  0  0  0  0  0  0  0  0
   -1.9227    2.1826   -0.4698 C   0  0  0  0  0  0  0  0  0  0  0  0
   -2.5615    3.1140    0.5375 C   0  0  0  0  0  0  0  0  0  0  0  0
    3.7583   -1.9231   -1.6823 H   0  0  0  0  0  0  0  0  0  0  0  0
    5.3272   -1.4077   -2.3205 H   0  0  0  0  0  0  0  0  0  0  0  0
    5.1301   -1.7153   -0.5882 H   0  0  0  0  0  0  0  0  0  0  0  0
    3.7706    0.5420   -2.1569 H   0  0  0  0  0  0  0  0  0  0  0  0
    5.1670    0.7314   -1.0695 H   0  0  0  0  0  0  0  0  0  0  0  0
    1.1242   -0.0620    3.0352 H   0  0  0  0  0  0  0  0  0  0  0  0
    2.2315   -0.9732    1.9840 H   0  0  0  0  0  0  0  0  0  0  0  0
    3.9907    0.7647    2.3270 H   0  0  0  0  0  0  0  0  0  0  0  0
    2.8794    1.6963    3.3398 H   0  0  0  0  0  0  0  0  0  0  0  0
    3.4519    0.1100    3.8839 H   0  0  0  0  0  0  0  0  0  0  0  0
    0.0141   -1.3712   -2.9769 H   0  0  0  0  0  0  0  0  0  0  0  0
   -0.0205    0.2715   -2.2469 H   0  0  0  0  0  0  0  0  0  0  0  0
   -3.9333   -1.3130    2.1116 H   0  0  0  0  0  0  0  0  0  0  0  0
   -5.2436   -0.3864    1.3188 H   0  0  0  0  0  0  0  0  0  0  0  0
   -3.6463   -2.7042    0.1066 H   0  0  0  0  0  0  0  0  0  0  0  0
   -5.3395   -2.7641    0.6160 H   0  0  0  0  0  0  0  0  0  0  0  0
   -4.8624   -1.7642   -0.7691 H   0  0  0  0  0  0  0  0  0  0  0  0
   -1.1470    2.6931   -1.0452 H   0  0  0  0  0  0  0  0  0  0  0  0
   -2.6660    1.7530   -1.1453 H   0  0  0  0  0  0  0  0  0  0  0  0
   -1.8067    3.4858    1.2255 H   0  0  0  0  0  0  0  0  0  0  0  0
   -3.0085    3.9504    0.0094 H   0  0  0  0  0  0  0  0  0  0  0  0
   -3.3288    2.5917    1.1034 H   0  0  0  0  0  0  0  0  0  0  0  0
  1  2  1  0  0  0  0
  2  3  1  0  0  0  0
  3  4  2  0  0  0  0
  4  5  2  0  0  0  0
  4  6  2  0  0  0  0
  6  7  1  0  0  0  0
  7  8  1  0  0  0  0
  4  9  1  0  0  0  0
  9 10  1  0  0  0  0
 10 11  1  0  0  0  0
 11 12  1  0  0  0  0
 12 13  2  0  0  0  0
 12 14  2  0  0  0  0
 14 15  1  0  0  0  0
 15 16  1  0  0  0  0
 12 17  2  0  0  0  0
 17 18  1  0  0  0  0
 18 19  1  0  0  0  0
  1 20  1  0  0  0  0
  1 21  1  0  0  0  0
  1 22  1  0  0  0  0
  2 23  1  0  0  0  0
  2 24  1  0  0  0  0
  7 25  1  0  0  0  0
  7 26  1  0  0  0  0
  8 27  1  0  0  0  0
  8 28  1  0  0  0  0
  8 29  1  0  0  0  0
 10 30  1  0  0  0  0
 10 31  1  0  0  0  0
 15 32  1  0  0  0  0
 15 33  1  0  0  0  0
 16 34  1  0  0  0  0
 16 35  1  0  0  0  0
 16 36  1  0  0  0  0
 18 37  1  0  0  0  0
 18 38  1  0  0  0  0
 19 39  1  0  0  0  0
 19 40  1  0  0  0  0
 19 41  1  0  0  0  0
M  END
