  19
 
 C          2.3939171943        0.0003306779       -0.0139961256
 N          0.9813908231        0.0010021542        0.3043805709
 C          0.3183380127        1.1871866964       -0.2117919733
 C         -1.1461088948        1.1881653046        0.2169216977
 N         -1.7910968243       -0.0005530875       -0.3135070078
 C         -1.1458188654       -1.1874867898        0.2205835249
 C          0.3187920442       -1.1872481802       -0.2075758338
 H          2.8539403177        0.8887283709        0.4150815026
 H          2.5828547225       -0.0060365716       -1.0992283690
 H          2.8553672898       -0.8820439540        0.4258024526
 H          0.8199705942        2.0689615395        0.1925578176
 H          0.3686903483        1.2253908967       -1.3146101263
 H         -1.1864612456        1.2245890855        1.3192076248
 H         -1.6466915818        2.0706744829       -0.1852798622
 H         -2.7748147008       -0.0002873502       -0.0658446617
 H         -1.1866897813       -1.2208357754        1.3229588335
 H         -1.6458898472       -2.0713071265       -0.1793823918
 H          0.8207493155       -2.0673573135        0.1999732769
 H          0.3695400987       -1.2293156103       -1.3102583542
          19
        -22.67363802
 C          2.3994781878        0.0001105346        0.0157976300
 N          0.9863766949       -0.0000076570       -0.2954882477
 C          0.3226024946        1.1915974646        0.2069114955
 C         -1.1467235153        1.1864777224       -0.2281246011
 N         -1.8567137493       -0.0000815521        0.2177405410
 C         -1.1465609942       -1.1865319597       -0.2282877871
 C          0.3228081006       -1.1915948282        0.2070489665
 H          2.5949838971       -0.0000189776        1.1009007625
 H          2.8578778346        0.8858732434       -0.4202274072
 H          2.8580587818       -0.8853886833       -0.4204549157
 H          0.3800882994        1.2458699140        1.3129845720
 H          0.8278861658        2.0679173888       -0.2040211499
 H         -1.6550572091        2.0695905706        0.1621713519
 H         -1.1929309949        1.2037364064       -1.3195476161
 H         -1.8938554063       -0.0000652844        1.2346405339
 H         -1.6548350533       -2.0697220475        0.1619139708
 H         -1.1925566979       -1.2035667689       -1.3198013654
 H          0.3802510363       -1.2457306460        1.3131991335
 H          0.8283283484       -2.0679576885       -0.2036692155
