41
 xtb: 6.7.1 (edcfbbe)
C            4.56417293012621       -1.68743909206193        0.86758969091007
C            4.50506056689304       -1.38989318528969       -0.61107937273473
O            3.12610741273829       -1.22774638910735       -1.10195486991680
P            2.23687596197296        0.04708148165595       -0.68611397082881
S            3.06990546728594        1.80576998485896       -0.73338758278482
O            1.62647535477225       -0.39889414376136        0.73793080935445
C            1.56424355401442        0.48437500726843        1.90743063940607
C            1.02126390003064       -0.33679088480666        3.04921071621422
S            0.70344223285896       -0.33393028987332       -2.10866575735691
C           -0.13106530881801        1.29631632351680       -2.15827197183770
S           -0.98183563546134        1.88412158745918       -0.63946453171849
P           -2.38706344782242        0.31846717756452       -0.33254933312100
S           -3.23518003755879       -0.36605113000737       -1.94535350407806
O           -3.41246796879209        1.04046320556846        0.67194515837524
C           -3.35520877238154        0.93061253739849        2.14196446555284
C           -2.28658045314995        1.81377732019469        2.73345316900281
O           -1.56877927437526       -0.72360832388691        0.57213519195371
C           -1.57862296476953       -2.17754431039817        0.38595892242932
C           -2.62896689620736       -2.81188636227318        1.26216289972691
H            4.24889135001450       -0.83095017797921        1.47086030332194
H            3.94308590432819       -2.55151530746791        1.12061314857270
H            5.60189646825543       -1.92066196071146        1.12821687152552
H            4.88390710150138       -2.22540154437888       -1.20246367178789
H            5.06593639808521       -0.48663860941609       -0.87100919201824
H            2.57221971152058        0.85266761423758        2.11812286507591
H            0.91506465514149        1.33137598207417        1.66739539593413
H            0.01869803739148       -0.71391005981052        2.82633999223861
H            1.68028607194660       -1.18183697487341        3.26911973062357
H            0.96135931640693        0.29587526290096        3.94027393225819
H           -0.85618792153101        1.21496814657314       -2.97311201148345
H            0.59955304348992        2.07475663042496       -2.39779414411760
H           -4.35301942779416        1.24577195941768        2.45318860019738
H           -3.21586108183688       -0.12061509031910        2.40561385147416
H           -2.36351128846327        1.76869809627237        3.82507706911186
H           -1.28380529307006        1.47873766249554        2.45374659068627
H           -2.41931395054179        2.85409765237719        2.42221804994361
H           -1.74126322965365       -2.39510661249345       -0.67339752955190
H           -0.56912656934153       -2.49152151044393        0.66258005885734
H           -3.63164358177002       -2.47429711362883        0.98193251147159
H           -2.58420762859776       -3.89889819225261        1.13746550908200
H           -2.45422276876428       -2.57888649965058        2.31643435211684
