 xtb: 6.7.1 (edcfbbe)
          04092505213D

 41 40  0     0  0            999 V2000
    5.3245   -1.4150   -0.4383 C   0  0  0  0  0  0  0  0  0  0  0  0
    4.0723   -2.2243   -0.7082 C   0  0  0  0  0  0  0  0  0  0  0  0
    3.0229   -1.4288   -1.3001 O   0  0  0  0  0  0  0  0  0  0  0  0
    2.3154   -0.2143   -0.5690 P   0  0  0  0  0  0  0  0  0  0  0  0
    3.2074    1.5353   -0.5282 S   0  0  0  0  0  0  0  0  0  0  0  0
    2.0003   -0.8222    0.8700 O   0  0  0  0  0  0  0  0  0  0  0  0
    1.9981   -0.0691    2.1018 C   0  0  0  0  0  0  0  0  0  0  0  0
    0.8562   -0.5434    2.9764 C   0  0  0  0  0  0  0  0  0  0  0  0
    0.5656   -0.3021   -1.7528 S   0  0  0  0  0  0  0  0  0  0  0  0
   -0.0019    1.3908   -1.4314 C   0  0  0  0  0  0  0  0  0  0  0  0
   -0.5143    1.6300    0.2858 S   0  0  0  0  0  0  0  0  0  0  0  0
   -2.1539    0.2809    0.2190 P   0  0  0  0  0  0  0  0  0  0  0  0
   -3.1946    0.3098   -1.4478 S   0  0  0  0  0  0  0  0  0  0  0  0
   -2.9024    0.5759    1.5854 O   0  0  0  0  0  0  0  0  0  0  0  0
   -3.4600    1.8508    1.9587 C   0  0  0  0  0  0  0  0  0  0  0  0
   -4.7905    2.1106    1.2796 C   0  0  0  0  0  0  0  0  0  0  0  0
   -1.4895   -1.1097    0.5783 O   0  0  0  0  0  0  0  0  0  0  0  0
   -1.9063   -2.3492   -0.0207 C   0  0  0  0  0  0  0  0  0  0  0  0
   -3.1948   -2.8400    0.6051 C   0  0  0  0  0  0  0  0  0  0  0  0
    5.1212   -0.6395    0.2995 H   0  0  0  0  0  0  0  0  0  0  0  0
    6.1038   -2.0697   -0.0610 H   0  0  0  0  0  0  0  0  0  0  0  0
    5.6679   -0.9353   -1.3517 H   0  0  0  0  0  0  0  0  0  0  0  0
    3.6892   -2.6728    0.2115 H   0  0  0  0  0  0  0  0  0  0  0  0
    4.2517   -3.0016   -1.4529 H   0  0  0  0  0  0  0  0  0  0  0  0
    2.9613   -0.2537    2.5841 H   0  0  0  0  0  0  0  0  0  0  0  0
    1.9158    0.9978    1.8733 H   0  0  0  0  0  0  0  0  0  0  0  0
    0.8920   -0.0085    3.9197 H   0  0  0  0  0  0  0  0  0  0  0  0
   -0.1000   -0.3522    2.4959 H   0  0  0  0  0  0  0  0  0  0  0  0
    0.9467   -1.6099    3.1616 H   0  0  0  0  0  0  0  0  0  0  0  0
   -0.8483    1.5703   -2.0943 H   0  0  0  0  0  0  0  0  0  0  0  0
    0.8107    2.0932   -1.6182 H   0  0  0  0  0  0  0  0  0  0  0  0
   -3.5767    1.7749    3.0414 H   0  0  0  0  0  0  0  0  0  0  0  0
   -2.7366    2.6363    1.7222 H   0  0  0  0  0  0  0  0  0  0  0  0
   -5.1997    3.0479    1.6429 H   0  0  0  0  0  0  0  0  0  0  0  0
   -4.6627    2.1745    0.2013 H   0  0  0  0  0  0  0  0  0  0  0  0
   -5.4878    1.3063    1.4985 H   0  0  0  0  0  0  0  0  0  0  0  0
   -2.0260   -2.2000   -1.0990 H   0  0  0  0  0  0  0  0  0  0  0  0
   -1.0740   -3.0300    0.1633 H   0  0  0  0  0  0  0  0  0  0  0  0
   -3.4621   -3.8016    0.1789 H   0  0  0  0  0  0  0  0  0  0  0  0
   -3.0775   -2.9371    1.6809 H   0  0  0  0  0  0  0  0  0  0  0  0
   -3.9921   -2.1261    0.4013 H   0  0  0  0  0  0  0  0  0  0  0  0
  1  2  1  0  0  0  0
  2  3  1  0  0  0  0
  3  4  2  0  0  0  0
  4  5  2  0  0  0  0
  4  6  2  0  0  0  0
  6  7  1  0  0  0  0
  7  8  1  0  0  0  0
  4  9  1  0  0  0  0
  9 10  1  0  0  0  0
 10 11  1  0  0  0  0
 11 12  1  0  0  0  0
 12 13  2  0  0  0  0
 12 14  2  0  0  0  0
 14 15  1  0  0  0  0
 15 16  1  0  0  0  0
 12 17  2  0  0  0  0
 17 18  1  0  0  0  0
 18 19  1  0  0  0  0
  1 20  1  0  0  0  0
  1 21  1  0  0  0  0
  1 22  1  0  0  0  0
  2 23  1  0  0  0  0
  2 24  1  0  0  0  0
  7 25  1  0  0  0  0
  7 26  1  0  0  0  0
  8 27  1  0  0  0  0
  8 28  1  0  0  0  0
  8 29  1  0  0  0  0
 10 30  1  0  0  0  0
 10 31  1  0  0  0  0
 15 32  1  0  0  0  0
 15 33  1  0  0  0  0
 16 34  1  0  0  0  0
 16 35  1  0  0  0  0
 16 36  1  0  0  0  0
 18 37  1  0  0  0  0
 18 38  1  0  0  0  0
 19 39  1  0  0  0  0
 19 40  1  0  0  0  0
 19 41  1  0  0  0  0
M  END
