 xtb: 6.7.1 (edcfbbe)
          04092505213D

 41 40  0     0  0            999 V2000
    3.4651   -0.5561   -2.5313 C   0  0  0  0  0  0  0  0  0  0  0  0
    2.0282   -0.1222   -2.3393 C   0  0  0  0  0  0  0  0  0  0  0  0
    1.5305   -0.4909   -1.0401 O   0  0  0  0  0  0  0  0  0  0  0  0
    2.0713    0.1839    0.2883 P   0  0  0  0  0  0  0  0  0  0  0  0
    2.7778    2.0051    0.1920 S   0  0  0  0  0  0  0  0  0  0  0  0
    3.1397   -0.9164    0.7364 O   0  0  0  0  0  0  0  0  0  0  0  0
    4.1505   -0.6453    1.7194 C   0  0  0  0  0  0  0  0  0  0  0  0
    3.5673   -0.4982    3.1107 C   0  0  0  0  0  0  0  0  0  0  0  0
    0.4271   -0.1439    1.5761 S   0  0  0  0  0  0  0  0  0  0  0  0
   -0.0718   -1.7961    1.0331 C   0  0  0  0  0  0  0  0  0  0  0  0
   -1.0575   -1.8428   -0.5106 S   0  0  0  0  0  0  0  0  0  0  0  0
   -1.9184    0.0827   -0.5720 P   0  0  0  0  0  0  0  0  0  0  0  0
   -0.8309    1.6328   -1.0980 S   0  0  0  0  0  0  0  0  0  0  0  0
   -2.6322    0.1715    0.8532 O   0  0  0  0  0  0  0  0  0  0  0  0
   -2.7087    1.3849    1.6218 C   0  0  0  0  0  0  0  0  0  0  0  0
   -3.8539    2.2551    1.1450 C   0  0  0  0  0  0  0  0  0  0  0  0
   -3.0553   -0.1084   -1.6592 O   0  0  0  0  0  0  0  0  0  0  0  0
   -4.3693   -0.6829   -1.4452 C   0  0  0  0  0  0  0  0  0  0  0  0
   -4.3336   -2.1009   -0.9172 C   0  0  0  0  0  0  0  0  0  0  0  0
    3.7705   -0.3416   -3.5505 H   0  0  0  0  0  0  0  0  0  0  0  0
    4.1091   -0.0071   -1.8450 H   0  0  0  0  0  0  0  0  0  0  0  0
    3.5638   -1.6208   -2.3369 H   0  0  0  0  0  0  0  0  0  0  0  0
    1.3501   -0.6280   -3.0294 H   0  0  0  0  0  0  0  0  0  0  0  0
    1.9220    0.9618   -2.4550 H   0  0  0  0  0  0  0  0  0  0  0  0
    4.8226   -1.5016    1.6501 H   0  0  0  0  0  0  0  0  0  0  0  0
    4.6772    0.2692    1.4282 H   0  0  0  0  0  0  0  0  0  0  0  0
    4.3741   -0.3710    3.8252 H   0  0  0  0  0  0  0  0  0  0  0  0
    2.9207    0.3783    3.1490 H   0  0  0  0  0  0  0  0  0  0  0  0
    2.9848   -1.3764    3.3762 H   0  0  0  0  0  0  0  0  0  0  0  0
   -0.6811   -2.1983    1.8389 H   0  0  0  0  0  0  0  0  0  0  0  0
    0.8106   -2.4075    0.8562 H   0  0  0  0  0  0  0  0  0  0  0  0
   -2.8496    1.0467    2.6490 H   0  0  0  0  0  0  0  0  0  0  0  0
   -1.7567    1.9192    1.5388 H   0  0  0  0  0  0  0  0  0  0  0  0
   -3.6915    2.5355    0.1042 H   0  0  0  0  0  0  0  0  0  0  0  0
   -4.7977    1.7230    1.2303 H   0  0  0  0  0  0  0  0  0  0  0  0
   -3.8954    3.1565    1.7480 H   0  0  0  0  0  0  0  0  0  0  0  0
   -4.9156   -0.0285   -0.7625 H   0  0  0  0  0  0  0  0  0  0  0  0
   -4.8188   -0.6355   -2.4385 H   0  0  0  0  0  0  0  0  0  0  0  0
   -3.7107   -2.7276   -1.5506 H   0  0  0  0  0  0  0  0  0  0  0  0
   -3.9365   -2.1190    0.0949 H   0  0  0  0  0  0  0  0  0  0  0  0
   -5.3455   -2.4946   -0.9084 H   0  0  0  0  0  0  0  0  0  0  0  0
  1  2  1  0  0  0  0
  2  3  1  0  0  0  0
  3  4  2  0  0  0  0
  4  5  2  0  0  0  0
  4  6  2  0  0  0  0
  6  7  1  0  0  0  0
  7  8  1  0  0  0  0
  4  9  1  0  0  0  0
  9 10  1  0  0  0  0
 10 11  1  0  0  0  0
 11 12  1  0  0  0  0
 12 13  2  0  0  0  0
 12 14  2  0  0  0  0
 14 15  1  0  0  0  0
 15 16  1  0  0  0  0
 12 17  2  0  0  0  0
 17 18  1  0  0  0  0
 18 19  1  0  0  0  0
  1 20  1  0  0  0  0
  1 21  1  0  0  0  0
  1 22  1  0  0  0  0
  2 23  1  0  0  0  0
  2 24  1  0  0  0  0
  7 25  1  0  0  0  0
  7 26  1  0  0  0  0
  8 27  1  0  0  0  0
  8 28  1  0  0  0  0
  8 29  1  0  0  0  0
 10 30  1  0  0  0  0
 10 31  1  0  0  0  0
 15 32  1  0  0  0  0
 15 33  1  0  0  0  0
 16 34  1  0  0  0  0
 16 35  1  0  0  0  0
 16 36  1  0  0  0  0
 18 37  1  0  0  0  0
 18 38  1  0  0  0  0
 19 39  1  0  0  0  0
 19 40  1  0  0  0  0
 19 41  1  0  0  0  0
M  END
