41
 xtb: 6.7.1 (edcfbbe)
C            5.65538853092454       -1.67406832708499       -1.21520836896955
C            4.35399009318800       -1.14020763105916       -1.75439463838302
O            3.32076301482427       -1.31379993079345       -0.72078826936006
P            2.36513668466227       -0.09642100628650       -0.27741257282710
S            3.22381294074586        1.61321099103048        0.08986173581114
O            1.55264945659066       -0.78284815958009        0.92247454627384
C            2.11282522010836       -0.86721684919581        2.28125344999263
C            0.96472905132590       -1.15820313313352        3.21151034139262
S            0.92731055970254       -0.11466786145597       -1.82861483938072
C            0.14217816235736        1.53279150135993       -1.62730371593215
S           -0.76731445483794        1.85496287125087       -0.06608840875178
P           -2.29739000160255        0.39270432544246       -0.16590169055078
S           -3.01734556701760        0.00823894066657       -1.93344748231103
O           -3.32342065417251        0.96870036304196        0.93735395312750
C           -4.26415046125437        2.04348780910902        0.58996337750116
C           -4.97698415338443        2.43577354590862        1.85769290535981
O           -1.64300936213054       -0.82478856535079        0.64816033374587
C           -2.13375080506333       -2.20559339478721        0.52477378275575
C           -3.42413862904948       -2.40562403585934        1.27979090169730
H            5.98551055148236       -1.09267074110565       -0.34938302372880
H            5.55757324007434       -2.72403185460447       -0.92478215033740
H            6.42050598411502       -1.60189389772634       -1.99469935290529
H            4.00839175636466       -1.69960758038280       -2.62785484083565
H            4.43241354684874       -0.08025282079884       -2.01499929128649
H            2.86146681680592       -1.66554957667432        2.28325550507631
H            2.59606146030214        0.08521000951851        2.51979672394178
H            0.23478553382511       -0.34382867884160        3.19362048208460
H            0.46523747209284       -2.09271305993983        2.93981570304452
H            1.34973824609244       -1.25641029399456        4.23128835854849
H           -0.53932202669573        1.63071950459147       -2.47728708644650
H            0.90835206397831        2.31191680780359       -1.68009608221449
H           -3.69956818938419        2.88150202546751        0.16733798779116
H           -4.95508378874852        1.65728592402701       -0.16515449680283
H           -4.27150693450109        2.80962741570826        2.60493512387798
H           -5.69277964021357        3.23111910248602        1.62880942175461
H           -5.52562839507796        1.58677566531504        2.27532200729425
H           -2.23611150942468       -2.44084004852473       -0.53909600754597
H           -1.32024274123961       -2.80112202402424        0.94448705078314
H           -3.68745474870857       -3.46800665002883        1.24934057517878
H           -3.31422458562394       -2.10684012483076        2.32631646482126
H           -4.24500944258599       -1.83852676636655        0.83061982480477
