16
 xtb: 6.7.1 (edcfbbe)
C           -1.84224498383308       -1.45080606540865       -0.00005728368399
C           -0.53069620231472       -0.72135564941912       -0.00004280374318
C            0.68922537511497       -1.40125515123950       -0.00005524389148
C            1.90685931622916       -0.72430498636992       -0.00002305120919
C            1.91674914734405        0.66842126903340        0.00002192852584
C            0.71786224269444        1.37401518050185        0.00003526740618
C           -0.49065387887017        0.68152373747737        0.00000833796317
O           -1.64424763921646        1.44006324061850        0.00004136738163
H           -1.67944518218434       -2.53053204905433       -0.00023590363736
H           -2.44368925848478       -1.20397388620060        0.88416393408382
H           -2.44382780890972       -1.20370862484292       -0.88410950259268
H            0.67509536305129       -2.48788664684473       -0.00009553040494
H            2.83822265847925       -1.28094690475531       -0.00003112196055
H            2.85677395968679        1.21130644936826        0.00004628935921
H            0.70605956197376        2.45938851652487        0.00007157465562
H           -2.41506278691097        0.85604376463160        0.00003799456318
