 xtb: 6.7.1 (edcfbbe)
          04092505203D

 41 40  0     0  0            999 V2000
    5.8186   -0.2994    0.3799 C   0  0  0  0  0  0  0  0  0  0  0  0
    4.5116   -0.6489   -0.3025 C   0  0  0  0  0  0  0  0  0  0  0  0
    3.4530    0.0504    0.3814 O   0  0  0  0  0  0  0  0  0  0  0  0
    2.0136    0.2207   -0.2719 P   0  0  0  0  0  0  0  0  0  0  0  0
    2.0412    0.8565   -2.1303 S   0  0  0  0  0  0  0  0  0  0  0  0
    1.2939    1.1099    0.8182 O   0  0  0  0  0  0  0  0  0  0  0  0
    1.3057    2.5507    0.7716 C   0  0  0  0  0  0  0  0  0  0  0  0
    2.6984    3.1115    0.9588 C   0  0  0  0  0  0  0  0  0  0  0  0
    1.1767   -1.6815    0.0561 S   0  0  0  0  0  0  0  0  0  0  0  0
    0.0004   -1.7901   -1.3359 C   0  0  0  0  0  0  0  0  0  0  0  0
   -1.7050   -2.0061   -0.7875 S   0  0  0  0  0  0  0  0  0  0  0  0
   -1.9880   -0.0687    0.0456 P   0  0  0  0  0  0  0  0  0  0  0  0
   -1.4035    1.4173   -1.0850 S   0  0  0  0  0  0  0  0  0  0  0  0
   -1.2970   -0.0583    1.4571 O   0  0  0  0  0  0  0  0  0  0  0  0
   -1.5530   -1.0470    2.4892 C   0  0  0  0  0  0  0  0  0  0  0  0
   -2.6039   -0.5500    3.4591 C   0  0  0  0  0  0  0  0  0  0  0  0
   -3.5338   -0.0840    0.4019 O   0  0  0  0  0  0  0  0  0  0  0  0
   -4.5395   -0.0447   -0.6326 C   0  0  0  0  0  0  0  0  0  0  0  0
   -5.8657    0.2820    0.0228 C   0  0  0  0  0  0  0  0  0  0  0  0
    6.0073    0.7678    0.3057 H   0  0  0  0  0  0  0  0  0  0  0  0
    5.7730   -0.5772    1.4288 H   0  0  0  0  0  0  0  0  0  0  0  0
    6.6263   -0.8402   -0.1020 H   0  0  0  0  0  0  0  0  0  0  0  0
    4.3056   -1.7213   -0.2446 H   0  0  0  0  0  0  0  0  0  0  0  0
    4.5088   -0.3407   -1.3536 H   0  0  0  0  0  0  0  0  0  0  0  0
    0.8781    2.8692   -0.1852 H   0  0  0  0  0  0  0  0  0  0  0  0
    0.6325    2.8383    1.5807 H   0  0  0  0  0  0  0  0  0  0  0  0
    3.3239    2.8323    0.1115 H   0  0  0  0  0  0  0  0  0  0  0  0
    2.6434    4.1942    1.0153 H   0  0  0  0  0  0  0  0  0  0  0  0
    3.1413    2.7189    1.8703 H   0  0  0  0  0  0  0  0  0  0  0  0
    0.2475   -2.6750   -1.9165 H   0  0  0  0  0  0  0  0  0  0  0  0
    0.0888   -0.8832   -1.9411 H   0  0  0  0  0  0  0  0  0  0  0  0
   -1.8606   -1.9830    2.0146 H   0  0  0  0  0  0  0  0  0  0  0  0
   -0.5850   -1.1828    2.9756 H   0  0  0  0  0  0  0  0  0  0  0  0
   -2.2941    0.3963    3.8939 H   0  0  0  0  0  0  0  0  0  0  0  0
   -3.5513   -0.4069    2.9466 H   0  0  0  0  0  0  0  0  0  0  0  0
   -2.7296   -1.2838    4.2491 H   0  0  0  0  0  0  0  0  0  0  0  0
   -4.2535    0.7161   -1.3661 H   0  0  0  0  0  0  0  0  0  0  0  0
   -4.5629   -1.0222   -1.1213 H   0  0  0  0  0  0  0  0  0  0  0  0
   -6.1198   -0.4824    0.7513 H   0  0  0  0  0  0  0  0  0  0  0  0
   -5.8073    1.2441    0.5241 H   0  0  0  0  0  0  0  0  0  0  0  0
   -6.6373    0.3221   -0.7389 H   0  0  0  0  0  0  0  0  0  0  0  0
  1  2  1  0  0  0  0
  2  3  1  0  0  0  0
  3  4  2  0  0  0  0
  4  5  2  0  0  0  0
  4  6  2  0  0  0  0
  6  7  1  0  0  0  0
  7  8  1  0  0  0  0
  4  9  1  0  0  0  0
  9 10  1  0  0  0  0
 10 11  1  0  0  0  0
 11 12  1  0  0  0  0
 12 13  2  0  0  0  0
 12 14  2  0  0  0  0
 14 15  1  0  0  0  0
 15 16  1  0  0  0  0
 12 17  2  0  0  0  0
 17 18  1  0  0  0  0
 18 19  1  0  0  0  0
  1 20  1  0  0  0  0
  1 21  1  0  0  0  0
  1 22  1  0  0  0  0
  2 23  1  0  0  0  0
  2 24  1  0  0  0  0
  7 25  1  0  0  0  0
  7 26  1  0  0  0  0
  8 27  1  0  0  0  0
  8 28  1  0  0  0  0
  8 29  1  0  0  0  0
 10 30  1  0  0  0  0
 10 31  1  0  0  0  0
 15 32  1  0  0  0  0
 15 33  1  0  0  0  0
 16 34  1  0  0  0  0
 16 35  1  0  0  0  0
 16 36  1  0  0  0  0
 18 37  1  0  0  0  0
 18 38  1  0  0  0  0
 19 39  1  0  0  0  0
 19 40  1  0  0  0  0
 19 41  1  0  0  0  0
M  END
