 xtb: 6.7.1 (edcfbbe)
          04092514033D

 41 40  0     0  0            999 V2000
    3.6837    1.6640   -1.6825 C   0  0  0  0  0  0  0  0  0  0  0  0
    2.3102    1.7575   -1.0510 C   0  0  0  0  0  0  0  0  0  0  0  0
    1.7449    0.4592   -0.7857 O   0  0  0  0  0  0  0  0  0  0  0  0
    2.2124   -0.4673    0.4102 P   0  0  0  0  0  0  0  0  0  0  0  0
    2.8949    0.4552    2.0017 S   0  0  0  0  0  0  0  0  0  0  0  0
    3.2413   -1.4456   -0.3044 O   0  0  0  0  0  0  0  0  0  0  0  0
    4.2437   -2.2063    0.3963 C   0  0  0  0  0  0  0  0  0  0  0  0
    3.6583   -3.3693    1.1720 C   0  0  0  0  0  0  0  0  0  0  0  0
    0.4686   -1.6358    0.6322 S   0  0  0  0  0  0  0  0  0  0  0  0
   -0.3962   -0.5769    1.8285 C   0  0  0  0  0  0  0  0  0  0  0  0
   -0.9593    1.0249    1.1804 S   0  0  0  0  0  0  0  0  0  0  0  0
   -2.2728    0.4226   -0.3798 P   0  0  0  0  0  0  0  0  0  0  0  0
   -1.5303    0.1337   -2.1739 S   0  0  0  0  0  0  0  0  0  0  0  0
   -3.4221    1.5234   -0.3237 O   0  0  0  0  0  0  0  0  0  0  0  0
   -3.4050    2.7241   -1.1120 C   0  0  0  0  0  0  0  0  0  0  0  0
   -2.3610    3.7089   -0.6247 C   0  0  0  0  0  0  0  0  0  0  0  0
   -2.9749   -0.8177    0.3096 O   0  0  0  0  0  0  0  0  0  0  0  0
   -3.5240   -1.9145   -0.4545 C   0  0  0  0  0  0  0  0  0  0  0  0
   -4.8186   -1.5394   -1.1455 C   0  0  0  0  0  0  0  0  0  0  0  0
    4.3929    1.2333   -0.9771 H   0  0  0  0  0  0  0  0  0  0  0  0
    3.6462    1.0404   -2.5719 H   0  0  0  0  0  0  0  0  0  0  0  0
    4.0171    2.6610   -1.9551 H   0  0  0  0  0  0  0  0  0  0  0  0
    1.5888    2.2209   -1.7266 H   0  0  0  0  0  0  0  0  0  0  0  0
    2.3503    2.3163   -0.1097 H   0  0  0  0  0  0  0  0  0  0  0  0
    4.9079   -2.5518   -0.3976 H   0  0  0  0  0  0  0  0  0  0  0  0
    4.7849   -1.5316    1.0674 H   0  0  0  0  0  0  0  0  0  0  0  0
    4.4693   -3.9712    1.5712 H   0  0  0  0  0  0  0  0  0  0  0  0
    3.0499   -3.0041    1.9979 H   0  0  0  0  0  0  0  0  0  0  0  0
    3.0393   -3.9852    0.5247 H   0  0  0  0  0  0  0  0  0  0  0  0
    0.2800   -0.3270    2.6468 H   0  0  0  0  0  0  0  0  0  0  0  0
   -1.2507   -1.1472    2.1825 H   0  0  0  0  0  0  0  0  0  0  0  0
   -3.2194    2.4511   -2.1562 H   0  0  0  0  0  0  0  0  0  0  0  0
   -4.4142    3.1252   -1.0062 H   0  0  0  0  0  0  0  0  0  0  0  0
   -2.4257    4.6216   -1.2092 H   0  0  0  0  0  0  0  0  0  0  0  0
   -2.5159    3.9405    0.4258 H   0  0  0  0  0  0  0  0  0  0  0  0
   -1.3650    3.2813   -0.7423 H   0  0  0  0  0  0  0  0  0  0  0  0
   -2.7759   -2.2352   -1.1864 H   0  0  0  0  0  0  0  0  0  0  0  0
   -3.6767   -2.7001    0.2868 H   0  0  0  0  0  0  0  0  0  0  0  0
   -5.2159   -2.4151   -1.6505 H   0  0  0  0  0  0  0  0  0  0  0  0
   -5.5462   -1.1777   -0.4242 H   0  0  0  0  0  0  0  0  0  0  0  0
   -4.6348   -0.7604   -1.8841 H   0  0  0  0  0  0  0  0  0  0  0  0
  1  2  1  0  0  0  0
  2  3  1  0  0  0  0
  3  4  2  0  0  0  0
  4  5  2  0  0  0  0
  4  6  2  0  0  0  0
  6  7  1  0  0  0  0
  7  8  1  0  0  0  0
  4  9  1  0  0  0  0
  9 10  1  0  0  0  0
 10 11  1  0  0  0  0
 11 12  1  0  0  0  0
 12 13  2  0  0  0  0
 12 14  2  0  0  0  0
 14 15  1  0  0  0  0
 15 16  1  0  0  0  0
 12 17  2  0  0  0  0
 17 18  1  0  0  0  0
 18 19  1  0  0  0  0
  1 20  1  0  0  0  0
  1 21  1  0  0  0  0
  1 22  1  0  0  0  0
  2 23  1  0  0  0  0
  2 24  1  0  0  0  0
  7 25  1  0  0  0  0
  7 26  1  0  0  0  0
  8 27  1  0  0  0  0
  8 28  1  0  0  0  0
  8 29  1  0  0  0  0
 10 30  1  0  0  0  0
 10 31  1  0  0  0  0
 15 32  1  0  0  0  0
 15 33  1  0  0  0  0
 16 34  1  0  0  0  0
 16 35  1  0  0  0  0
 16 36  1  0  0  0  0
 18 37  1  0  0  0  0
 18 38  1  0  0  0  0
 19 39  1  0  0  0  0
 19 40  1  0  0  0  0
 19 41  1  0  0  0  0
M  END
