 xtb: 6.7.1 (edcfbbe)
          04092505213D

 41 40  0     0  0            999 V2000
    4.0741    0.0380    2.3246 C   0  0  0  0  0  0  0  0  0  0  0  0
    4.8496   -0.1710    1.0420 C   0  0  0  0  0  0  0  0  0  0  0  0
    4.1098   -0.9483    0.0664 O   0  0  0  0  0  0  0  0  0  0  0  0
    2.7354   -0.5458   -0.5837 P   0  0  0  0  0  0  0  0  0  0  0  0
    2.4305   -1.4968   -2.2687 S   0  0  0  0  0  0  0  0  0  0  0  0
    2.9035    1.0364   -0.7097 O   0  0  0  0  0  0  0  0  0  0  0  0
    1.9743    1.8897   -1.3972 C   0  0  0  0  0  0  0  0  0  0  0  0
    1.0847    2.6179   -0.4077 C   0  0  0  0  0  0  0  0  0  0  0  0
    1.2578   -0.9079    0.9178 S   0  0  0  0  0  0  0  0  0  0  0  0
   -0.0323   -1.6193   -0.1264 C   0  0  0  0  0  0  0  0  0  0  0  0
   -0.8139   -0.4051   -1.2366 S   0  0  0  0  0  0  0  0  0  0  0  0
   -2.2784    0.3354    0.1043 P   0  0  0  0  0  0  0  0  0  0  0  0
   -3.2053    1.9477   -0.5046 S   0  0  0  0  0  0  0  0  0  0  0  0
   -1.4445    0.4558    1.4414 O   0  0  0  0  0  0  0  0  0  0  0  0
   -1.8341    1.3563    2.5006 C   0  0  0  0  0  0  0  0  0  0  0  0
   -3.1020    0.8892    3.1819 C   0  0  0  0  0  0  0  0  0  0  0  0
   -3.1766   -0.9480    0.4287 O   0  0  0  0  0  0  0  0  0  0  0  0
   -4.1415   -1.4422   -0.5175 C   0  0  0  0  0  0  0  0  0  0  0  0
   -5.5176   -0.8708   -0.2354 C   0  0  0  0  0  0  0  0  0  0  0  0
    4.7068    0.5515    3.0420 H   0  0  0  0  0  0  0  0  0  0  0  0
    3.1892    0.6433    2.1359 H   0  0  0  0  0  0  0  0  0  0  0  0
    3.7612   -0.9165    2.7400 H   0  0  0  0  0  0  0  0  0  0  0  0
    5.7459   -0.7711    1.2055 H   0  0  0  0  0  0  0  0  0  0  0  0
    5.1177    0.7829    0.5845 H   0  0  0  0  0  0  0  0  0  0  0  0
    2.5950    2.5929   -1.9561 H   0  0  0  0  0  0  0  0  0  0  0  0
    1.3858    1.2934   -2.1025 H   0  0  0  0  0  0  0  0  0  0  0  0
    1.6880    3.2046    0.2789 H   0  0  0  0  0  0  0  0  0  0  0  0
    0.4113    3.2753   -0.9496 H   0  0  0  0  0  0  0  0  0  0  0  0
    0.4894    1.9105    0.1668 H   0  0  0  0  0  0  0  0  0  0  0  0
   -0.7815   -2.0400    0.5392 H   0  0  0  0  0  0  0  0  0  0  0  0
    0.4071   -2.3752   -0.7762 H   0  0  0  0  0  0  0  0  0  0  0  0
   -0.9782    1.3464    3.1765 H   0  0  0  0  0  0  0  0  0  0  0  0
   -1.9696    2.3557    2.0756 H   0  0  0  0  0  0  0  0  0  0  0  0
   -3.3240    1.5420    4.0201 H   0  0  0  0  0  0  0  0  0  0  0  0
   -3.9306    0.9251    2.4755 H   0  0  0  0  0  0  0  0  0  0  0  0
   -2.9854   -0.1311    3.5369 H   0  0  0  0  0  0  0  0  0  0  0  0
   -3.8142   -1.1910   -1.5321 H   0  0  0  0  0  0  0  0  0  0  0  0
   -4.1298   -2.5267   -0.3907 H   0  0  0  0  0  0  0  0  0  0  0  0
   -5.8160   -1.1021    0.7833 H   0  0  0  0  0  0  0  0  0  0  0  0
   -5.5102    0.2093   -0.3650 H   0  0  0  0  0  0  0  0  0  0  0  0
   -6.2333   -1.3039   -0.9266 H   0  0  0  0  0  0  0  0  0  0  0  0
  1  2  1  0  0  0  0
  2  3  1  0  0  0  0
  3  4  2  0  0  0  0
  4  5  2  0  0  0  0
  4  6  2  0  0  0  0
  6  7  1  0  0  0  0
  7  8  1  0  0  0  0
  4  9  1  0  0  0  0
  9 10  1  0  0  0  0
 10 11  1  0  0  0  0
 11 12  1  0  0  0  0
 12 13  2  0  0  0  0
 12 14  2  0  0  0  0
 14 15  1  0  0  0  0
 15 16  1  0  0  0  0
 12 17  1  0  0  0  0
 17 18  1  0  0  0  0
 18 19  1  0  0  0  0
  1 20  1  0  0  0  0
  1 21  1  0  0  0  0
  1 22  1  0  0  0  0
  2 23  1  0  0  0  0
  2 24  1  0  0  0  0
  7 25  1  0  0  0  0
  7 26  1  0  0  0  0
  8 27  1  0  0  0  0
  8 28  1  0  0  0  0
  8 29  1  0  0  0  0
 10 30  1  0  0  0  0
 10 31  1  0  0  0  0
 15 32  1  0  0  0  0
 15 33  1  0  0  0  0
 16 34  1  0  0  0  0
 16 35  1  0  0  0  0
 16 36  1  0  0  0  0
 18 37  1  0  0  0  0
 18 38  1  0  0  0  0
 19 39  1  0  0  0  0
 19 40  1  0  0  0  0
 19 41  1  0  0  0  0
M  END
