  20
 
 C         -2.1781828860        1.4823962006       -0.4028701755
 C         -2.0161393631        0.1560484456        0.3367252818
 C         -3.2747115985       -0.6940870429        0.1700817938
 C         -0.7979414640       -0.6265144309       -0.1673823986
 C          0.5210218280        0.0584917933        0.1584092671
 O          1.5910721128       -0.8497871422       -0.1762393270
 C          2.8124057861       -0.3926126359       -0.1219887498
 O          3.1496472272        0.7238366822        0.1857299701
 H         -1.3322573293        2.1400815804       -0.2219135015
 H         -3.0786636780        1.9903785387       -0.0661149316
 H         -2.2628867556        1.3103006620       -1.4732978348
 H         -1.8762662329        0.3652220949        1.4027277105
 H         -3.1837379111       -1.6291257681        0.7167940365
 H         -3.4397087775       -0.9233213422       -0.8798575345
 H         -4.1441413608       -0.1608182840        0.5455609752
 H         -0.8709988760       -0.7672790642       -1.2465110913
 H         -0.7835940897       -1.6130093497        0.2986300277
 H          0.6668018643        0.9807726509       -0.4103205774
 H          0.5938377586        0.2949425928        1.2246809070
 H          3.5209824605       -1.1857386560       -0.4042963198
          20
        -27.11163845
 C         -2.8259688753       -0.0617884612       -0.7115702251
 C         -1.3849667853        0.1808776895       -0.2647209557
 C         -1.3158177753        1.4084736668        0.6420558360
 C         -0.8545741998       -1.0781760597        0.4328419446
 C          0.6223725940       -1.0143812761        0.8104007680
 O          1.4412372474       -0.9162067470       -0.3727956512
 C          2.0772036740        0.1974532478       -0.6122212457
 O          2.0951446630        1.1927800172        0.0685503443
 H         -2.8857695433       -0.9242487656       -1.3709519619
 H         -3.2083909873        0.8044973537       -1.2452283525
 H         -3.4616337247       -0.2417464672        0.1521038731
 H         -0.7738827533        0.3716121528       -1.1555829986
 H         -1.8051738940        2.2532634765        0.1630991395
 H         -0.2858310432        1.6955939578        0.8416407983
 H         -1.8160539906        1.2122647853        1.5876274098
 H         -0.9999191469       -1.9346355282       -0.2277072406
 H         -1.4217759069       -1.2497786985        1.3483477276
 H          0.8384484507       -0.1620478834        1.4579408457
 H          0.9266650890       -1.9409784819        1.3004170771
 H          2.6317110797        0.1058170470       -1.5588754290
