  18
 
 C         -2.2307630510        0.5099506072        0.1135738758
 C         -1.1441495596       -0.3802673175       -0.4795713004
 C          0.0561843416       -0.5891449932        0.4507308891
 H         -0.3083650239       -0.8982260743        1.4368152108
 C          0.9754854110       -1.6760064641       -0.1049336017
 C          0.8507769755        0.7073225035        0.6501510158
 O          1.3025640361        1.1915856071       -0.5994282329
 H         -3.0906053149        0.5396982758       -0.5512101998
 H         -2.5543893549        0.1257402144        1.0787502332
 H         -1.8743274064        1.5276916836        0.2475997498
 H         -0.7836463724        0.0524613030       -1.4143017122
 H         -1.5751633133       -1.3579544887       -0.7054673054
 H          1.7971506835       -1.8687011897        0.5807865892
 H          1.3874488541       -1.3522771048       -1.0573553598
 H          0.4256511306       -2.6008888918       -0.2568256910
 H          1.7070107986        0.4988148633        1.3070222072
 H          0.2176302186        1.4573875045        1.1415163040
 H          1.8150551859        1.9976053973       -0.4605736453
          18
        -20.89541908
 C         -2.2159081159        0.9182552073        0.1893545962
 C         -0.8569749177        0.6654423565       -0.4525579109
 C         -0.0362495621       -0.4117823296        0.2654392578
 H         -0.0653534878       -0.2096580462        1.3429662377
 C         -0.5822855270       -1.8144830232        0.0146350645
 C          1.4274939663       -0.3400752877       -0.1937141017
 O          2.0531796728        0.8877439745        0.1115663506
 H         -2.7303067608        1.7231682892       -0.3297493639
 H         -2.8416796968        0.0308662959        0.1423934687
 H         -2.0994258734        1.2033110185        1.2326837683
 H         -0.2799412189        1.5934242988       -0.4465698226
 H         -0.9935342472        0.3706088060       -1.4953435543
 H         -1.6061849488       -1.8951112395        0.3671180995
 H          0.0176634260       -2.5562261942        0.5367263366
 H         -0.5619621057       -2.0425322306       -1.0485875299
 H          1.4790138262       -0.4271952757       -1.2821236416
 H          1.9961053952       -1.1717502186        0.2446617535
 H          2.0723009835        0.9990675577        1.0722343421
