 xtb: 6.7.1 (edcfbbe)
          04092505213D

 41 40  0     0  0            999 V2000
    2.0523    2.2235   -0.6690 C   0  0  0  0  0  0  0  0  0  0  0  0
    2.1669    0.9414   -1.4686 C   0  0  0  0  0  0  0  0  0  0  0  0
    2.8030   -0.1213   -0.7410 O   0  0  0  0  0  0  0  0  0  0  0  0
    2.3295   -0.7514    0.6401 P   0  0  0  0  0  0  0  0  0  0  0  0
    2.5643    0.3240    2.2670 S   0  0  0  0  0  0  0  0  0  0  0  0
    3.1528   -2.1033    0.6330 O   0  0  0  0  0  0  0  0  0  0  0  0
    4.4315   -2.2256    1.2871 C   0  0  0  0  0  0  0  0  0  0  0  0
    5.5098   -1.4657    0.5439 C   0  0  0  0  0  0  0  0  0  0  0  0
    0.3941   -1.5429    0.2763 S   0  0  0  0  0  0  0  0  0  0  0  0
   -0.5103   -0.7150    1.6146 C   0  0  0  0  0  0  0  0  0  0  0  0
   -1.1226    0.9380    1.1768 S   0  0  0  0  0  0  0  0  0  0  0  0
   -2.2952    0.4534   -0.5233 P   0  0  0  0  0  0  0  0  0  0  0  0
   -1.4349    0.3006   -2.2841 S   0  0  0  0  0  0  0  0  0  0  0  0
   -3.4646    1.5295   -0.4862 O   0  0  0  0  0  0  0  0  0  0  0  0
   -3.3499    2.8035   -1.1407 C   0  0  0  0  0  0  0  0  0  0  0  0
   -2.3175    3.6859   -0.4694 C   0  0  0  0  0  0  0  0  0  0  0  0
   -3.0102   -0.8480    0.0237 O   0  0  0  0  0  0  0  0  0  0  0  0
   -3.5867   -1.8273   -0.8658 C   0  0  0  0  0  0  0  0  0  0  0  0
   -4.8219   -1.2931   -1.5593 C   0  0  0  0  0  0  0  0  0  0  0  0
    3.0252    2.5196   -0.2844 H   0  0  0  0  0  0  0  0  0  0  0  0
    1.6669    3.0075   -1.3135 H   0  0  0  0  0  0  0  0  0  0  0  0
    1.3729    2.0934    0.1726 H   0  0  0  0  0  0  0  0  0  0  0  0
    2.8116    1.0744   -2.3393 H   0  0  0  0  0  0  0  0  0  0  0  0
    1.1819    0.5991   -1.8021 H   0  0  0  0  0  0  0  0  0  0  0  0
    4.3348   -1.8554    2.3130 H   0  0  0  0  0  0  0  0  0  0  0  0
    4.6209   -3.2996    1.2951 H   0  0  0  0  0  0  0  0  0  0  0  0
    6.4698   -1.6406    1.0194 H   0  0  0  0  0  0  0  0  0  0  0  0
    5.5516   -1.7901   -0.4924 H   0  0  0  0  0  0  0  0  0  0  0  0
    5.2888   -0.3993    0.5681 H   0  0  0  0  0  0  0  0  0  0  0  0
    0.1565   -0.5610    2.4647 H   0  0  0  0  0  0  0  0  0  0  0  0
   -1.3500   -1.3526    1.8749 H   0  0  0  0  0  0  0  0  0  0  0  0
   -3.0858    2.6318   -2.1895 H   0  0  0  0  0  0  0  0  0  0  0  0
   -4.3524    3.2276   -1.0730 H   0  0  0  0  0  0  0  0  0  0  0  0
   -2.3112    4.6629   -0.9417 H   0  0  0  0  0  0  0  0  0  0  0  0
   -2.5420    3.7951    0.5885 H   0  0  0  0  0  0  0  0  0  0  0  0
   -1.3293    3.2365   -0.5692 H   0  0  0  0  0  0  0  0  0  0  0  0
   -2.8262   -2.1226   -1.5960 H   0  0  0  0  0  0  0  0  0  0  0  0
   -3.8193   -2.6699   -0.2134 H   0  0  0  0  0  0  0  0  0  0  0  0
   -5.2822   -2.0876   -2.1382 H   0  0  0  0  0  0  0  0  0  0  0  0
   -5.5316   -0.9186   -0.8264 H   0  0  0  0  0  0  0  0  0  0  0  0
   -4.5466   -0.4802   -2.2301 H   0  0  0  0  0  0  0  0  0  0  0  0
  1  2  1  0  0  0  0
  2  3  1  0  0  0  0
  3  4  2  0  0  0  0
  4  5  2  0  0  0  0
  4  6  2  0  0  0  0
  6  7  1  0  0  0  0
  7  8  1  0  0  0  0
  4  9  1  0  0  0  0
  9 10  1  0  0  0  0
 10 11  1  0  0  0  0
 11 12  1  0  0  0  0
 12 13  2  0  0  0  0
 12 14  2  0  0  0  0
 14 15  1  0  0  0  0
 15 16  1  0  0  0  0
 12 17  2  0  0  0  0
 17 18  1  0  0  0  0
 18 19  1  0  0  0  0
  1 20  1  0  0  0  0
  1 21  1  0  0  0  0
  1 22  1  0  0  0  0
  2 23  1  0  0  0  0
  2 24  1  0  0  0  0
  7 25  1  0  0  0  0
  7 26  1  0  0  0  0
  8 27  1  0  0  0  0
  8 28  1  0  0  0  0
  8 29  1  0  0  0  0
 10 30  1  0  0  0  0
 10 31  1  0  0  0  0
 15 32  1  0  0  0  0
 15 33  1  0  0  0  0
 16 34  1  0  0  0  0
 16 35  1  0  0  0  0
 16 36  1  0  0  0  0
 18 37  1  0  0  0  0
 18 38  1  0  0  0  0
 19 39  1  0  0  0  0
 19 40  1  0  0  0  0
 19 41  1  0  0  0  0
M  END
