 xtb: 6.7.1 (edcfbbe)
          04092505213D

 41 40  0     0  0            999 V2000
    2.3949    2.2333   -1.1860 C   0  0  0  0  0  0  0  0  0  0  0  0
    2.1689    0.8610   -1.7897 C   0  0  0  0  0  0  0  0  0  0  0  0
    2.8785   -0.1697   -1.0886 O   0  0  0  0  0  0  0  0  0  0  0  0
    2.5268   -0.7180    0.3563 P   0  0  0  0  0  0  0  0  0  0  0  0
    2.9594    0.4029    1.9118 S   0  0  0  0  0  0  0  0  0  0  0  0
    3.4050   -2.0253    0.2217 O   0  0  0  0  0  0  0  0  0  0  0  0
    3.8549   -2.7575    1.3757 C   0  0  0  0  0  0  0  0  0  0  0  0
    2.7175   -3.4804    2.0698 C   0  0  0  0  0  0  0  0  0  0  0  0
    0.5108   -1.3957    0.2450 S   0  0  0  0  0  0  0  0  0  0  0  0
   -0.2501   -0.2533    1.4301 C   0  0  0  0  0  0  0  0  0  0  0  0
   -0.6761    1.3683    0.7294 S   0  0  0  0  0  0  0  0  0  0  0  0
   -2.0999    0.7825   -0.7298 P   0  0  0  0  0  0  0  0  0  0  0  0
   -1.5206    0.0199   -2.4336 S   0  0  0  0  0  0  0  0  0  0  0  0
   -2.8628    2.1432   -0.9920 O   0  0  0  0  0  0  0  0  0  0  0  0
   -3.5195    2.8990    0.0591 C   0  0  0  0  0  0  0  0  0  0  0  0
   -4.7074    3.6124   -0.5531 C   0  0  0  0  0  0  0  0  0  0  0  0
   -3.0960   -0.1200    0.1347 O   0  0  0  0  0  0  0  0  0  0  0  0
   -3.6246   -1.3900   -0.3002 C   0  0  0  0  0  0  0  0  0  0  0  0
   -2.9874   -2.5312    0.4665 C   0  0  0  0  0  0  0  0  0  0  0  0
    1.9759    2.2868   -0.1824 H   0  0  0  0  0  0  0  0  0  0  0  0
    3.4595    2.4462   -1.1307 H   0  0  0  0  0  0  0  0  0  0  0  0
    1.9089    2.9785   -1.8079 H   0  0  0  0  0  0  0  0  0  0  0  0
    2.5668    0.8053   -2.8048 H   0  0  0  0  0  0  0  0  0  0  0  0
    1.1021    0.6121   -1.8191 H   0  0  0  0  0  0  0  0  0  0  0  0
    4.5890   -3.4556    0.9711 H   0  0  0  0  0  0  0  0  0  0  0  0
    4.3456   -2.0601    2.0626 H   0  0  0  0  0  0  0  0  0  0  0  0
    3.1221   -4.1238    2.8444 H   0  0  0  0  0  0  0  0  0  0  0  0
    2.0418   -2.7590    2.5268 H   0  0  0  0  0  0  0  0  0  0  0  0
    2.1615   -4.0812    1.3545 H   0  0  0  0  0  0  0  0  0  0  0  0
    0.4591   -0.0415    2.2327 H   0  0  0  0  0  0  0  0  0  0  0  0
   -1.1503   -0.7315    1.8050 H   0  0  0  0  0  0  0  0  0  0  0  0
   -3.8292    2.2114    0.8493 H   0  0  0  0  0  0  0  0  0  0  0  0
   -2.7888    3.6064    0.4569 H   0  0  0  0  0  0  0  0  0  0  0  0
   -5.4184    2.8912   -0.9467 H   0  0  0  0  0  0  0  0  0  0  0  0
   -5.1910    4.2164    0.2079 H   0  0  0  0  0  0  0  0  0  0  0  0
   -4.3763    4.2531   -1.3653 H   0  0  0  0  0  0  0  0  0  0  0  0
   -4.6971   -1.3317   -0.1066 H   0  0  0  0  0  0  0  0  0  0  0  0
   -3.4495   -1.4976   -1.3753 H   0  0  0  0  0  0  0  0  0  0  0  0
   -3.1250   -2.3939    1.5355 H   0  0  0  0  0  0  0  0  0  0  0  0
   -3.4589   -3.4612    0.1656 H   0  0  0  0  0  0  0  0  0  0  0  0
   -1.9233   -2.5897    0.2428 H   0  0  0  0  0  0  0  0  0  0  0  0
  1  2  1  0  0  0  0
  2  3  1  0  0  0  0
  3  4  2  0  0  0  0
  4  5  2  0  0  0  0
  4  6  2  0  0  0  0
  6  7  1  0  0  0  0
  7  8  1  0  0  0  0
  4  9  1  0  0  0  0
  9 10  1  0  0  0  0
 10 11  1  0  0  0  0
 11 12  1  0  0  0  0
 12 13  2  0  0  0  0
 12 14  2  0  0  0  0
 14 15  1  0  0  0  0
 15 16  1  0  0  0  0
 12 17  2  0  0  0  0
 17 18  1  0  0  0  0
 18 19  1  0  0  0  0
  1 20  1  0  0  0  0
  1 21  1  0  0  0  0
  1 22  1  0  0  0  0
  2 23  1  0  0  0  0
  2 24  1  0  0  0  0
  7 25  1  0  0  0  0
  7 26  1  0  0  0  0
  8 27  1  0  0  0  0
  8 28  1  0  0  0  0
  8 29  1  0  0  0  0
 10 30  1  0  0  0  0
 10 31  1  0  0  0  0
 15 32  1  0  0  0  0
 15 33  1  0  0  0  0
 16 34  1  0  0  0  0
 16 35  1  0  0  0  0
 16 36  1  0  0  0  0
 18 37  1  0  0  0  0
 18 38  1  0  0  0  0
 19 39  1  0  0  0  0
 19 40  1  0  0  0  0
 19 41  1  0  0  0  0
M  END
