  24
 
 C         -3.6169714715        0.0252607060       -0.1542627024
 C         -2.2317626821       -0.3980793934        0.3201305564
 C         -1.1534983521        0.5694685302       -0.1635310517
 C          0.2451510529        0.2057185565        0.3257622321
 C          0.7936449896       -1.1060337560       -0.2402287141
 C          2.3086799405       -1.0209788174       -0.0186871836
 C          2.6401354439        0.4809686213        0.0806081455
 C          1.3096097272        1.2144352381       -0.1131881613
 H         -4.3723512138       -0.6754958938        0.1927811942
 H         -3.8643506988        1.0142024045        0.2253822326
 H         -3.6520303788        0.0581345442       -1.2410482441
 H         -2.2174523051       -0.4381646907        1.4117365865
 H         -2.0146191853       -1.4006694338       -0.0524007413
 H         -1.1564001896        0.5926580119       -1.2564198625
 H         -1.3973236603        1.5756882265        0.1876546889
 H          0.2383577021        0.1469351341        1.4195033524
 H          0.3629796497       -1.9832577592        0.2397455893
 H          0.5697701610       -1.1554411604       -1.3074847248
 H          2.5821714323       -1.5284570419        0.9066536284
 H          2.8532712599       -1.5015063463       -0.8304481904
 H          3.0555876954        0.7105683639        1.0620939003
 H          3.3724312183        0.7838855055       -0.6665664489
 H          1.2628042719        2.1432074531        0.4538035685
 H          1.1601622862        1.4523761611       -1.1680291461
          24
        -25.31056616
 C         -3.5944832357       -0.0225417890       -0.2502207562
 C         -2.2393256426       -0.3225672562        0.3797702046
 C         -1.1302165998        0.5319136743       -0.2310224677
 C          0.2388281912        0.2534610098        0.3855162163
 C          0.7946486422       -1.1479062852        0.0554053611
 C          2.2744910184       -0.9554577408       -0.3187482445
 C          2.6177418632        0.4629834169        0.1354700368
 C          1.3192981548        1.2220337832       -0.1102932983
 H         -3.8570857326        1.0234827850       -0.1084746123
 H         -3.5713553439       -0.2271884641       -1.3182892314
 H         -4.3704681246       -0.6363260271        0.2005405531
 H         -2.2883162700       -0.1316809180        1.4542527579
 H         -2.0026609579       -1.3793358078        0.2428555013
 H         -1.0844698558        0.3507737075       -1.3078189931
 H         -1.3747198784        1.5871751720       -0.0840569792
 H          0.1544822493        0.3570228142        1.4723886776
 H          0.6916229983       -1.8128985016        0.9122072624
 H          0.2462392230       -1.5923100503       -0.7749211752
 H          2.9161813643       -1.7026458073        0.1458214569
 H          2.3998850500       -1.0305420761       -1.3995794572
 H          2.8540549610        0.4706261197        1.2007874812
 H          3.4628302253        0.8818511375       -0.4088797470
 H          1.2836503440        2.1802698377        0.4060795276
 H          1.1917028159        1.4005227217       -1.1796232839
