41
 xtb: 6.7.1 (edcfbbe)
C            1.39892825368071       -2.96110419106668        1.32824104196884
C            2.33785907784850       -1.79364339815952        1.49327894208974
O            1.75795893209877       -0.62578610458036        0.81050540819875
P            2.52574651541156        0.09343901007562       -0.40415345662978
S            3.21986626171639       -1.07818977472372       -1.79667554010369
O            3.70747981693060        0.97898457557277        0.23335084495316
C            3.50098003173050        2.14041759816183        1.12065899720322
C            2.81079874304472        1.80395611091509        2.42016048333456
S            1.08208534618418        1.53601994972840       -0.98091744733042
C            0.10851323659515        0.58141019902599       -2.21147104022316
S           -0.86883788884757       -0.85092139493497       -1.61070864457708
P           -2.15169179942058        0.09715127961263       -0.21515099490232
S           -2.76573542292453        1.88250812000602       -0.68981265183729
O           -1.33700365369056       -0.06682408425075        1.15647154707195
C           -1.52054452848331        0.83895470880223        2.29888607016188
C           -2.81484948527300        0.56179128510936        3.02237296448790
O           -3.27526810283776       -1.04205838272614       -0.01518710461057
C           -4.35431064860492       -1.21703745042524       -0.99791746715308
C           -5.28127528017491       -2.27240492502340       -0.45378114843122
H            1.32021425829168       -3.25389899915096        0.27742620715364
H            1.78044356689240       -3.81343258656018        1.89980062922894
H            0.40192288235665       -2.71084437823539        1.70364942807261
H            3.32988414463433       -2.00727294477662        1.08342625063471
H            2.44248621405628       -1.49596210024313        2.54003472450695
H            4.51889693478387        2.49304083907283        1.29659369806082
H            2.96557361342344        2.91096794059909        0.55589198985871
H            1.75637268845143        1.55197405342312        2.28141315896276
H            3.31487862120473        0.97742327432362        2.92927861149167
H            2.86526972795398        2.68739268241362        3.06493756235176
H            0.77831099457010        0.17783035662867       -2.97616036505400
H           -0.56231957971985        1.31779788703339       -2.66291953341676
H           -0.65224421059338        0.63208350877258        2.92828288915652
H           -1.46132404688337        1.86948612828794        1.93551117690300
H           -2.86712515327819        1.20247163692749        3.90893964020046
H           -3.68128505622109        0.78257313733611        2.39146407271558
H           -2.86537496341261       -0.48173814753420        3.34622237960093
H           -4.86188955792453       -0.25617361006293       -1.12557261360284
H           -3.90747011923694       -1.51979975113073       -1.95084191545168
H           -4.75787981513832       -3.22273219525028       -0.31659233883578
H           -5.71056308080922       -1.95787016202495        0.50172893811909
H           -6.09769742558414       -2.42701797779887       -1.16571868024091
