41
 xtb: 6.7.1 (edcfbbe)
C            5.90629571509330        0.00564861920897       -0.45188565074272
C            4.74647600375347       -0.95577028896560       -0.39701941205026
O            3.63750208694676       -0.32945903373655        0.34065067209797
P            2.26994737205944        0.08118802541826       -0.40590391185942
S            2.42177719861536        0.95818915605829       -2.13836703836825
O            1.53366094758998        0.89909288854821        0.76412581850687
C            1.69384783851362        2.35917978103370        0.88661724367793
C            3.07794941803159        2.74158081979996        1.35104179986439
S            1.28443511992991       -1.78968735149409       -0.38754560142950
C           -0.06401079574549       -1.54939408990085       -1.62883495035752
S           -1.73309390813962       -1.95521002613701       -0.99472255800820
P           -2.28244145236350       -0.14078442843346       -0.04748446610884
S           -1.85335728735946        1.49358309109095       -1.01248480423055
O           -1.64817049841757       -0.31289328917556        1.41608656344867
C           -1.53453691189080        0.82538289809051        2.34500839231535
C           -2.84992654604869        1.11425042478923        3.02511420303558
O           -3.83873922125373       -0.43922980158306        0.24596605316081
C           -4.86208614898165       -0.21388769876200       -0.78532362417518
C           -6.20024092183742       -0.47047159178485       -0.14303013378340
H            5.64668505067519        0.90006437044471       -1.02541195612057
H            6.21313224051560        0.30326118627827        0.55496346669406
H            6.75400858514565       -0.48577613833768       -0.94019792965405
H            4.99003294612277       -1.86149945464906        0.16365615454911
H            4.40748384535220       -1.23951113096005       -1.39804133893790
H            1.44123724745521        2.81164315345062       -0.07698892642410
H            0.93519193885258        2.63582241657134        1.62076192691512
H            3.83854066207141        2.51013984481227        0.59947273129066
H            3.09591100529355        3.82162361099355        1.53046691559583
H            3.33251217667332        2.23271738561662        2.28515887755333
H            0.11372996062642       -2.24101318272538       -2.45557789051548
H           -0.04278944717583       -0.52216886672577       -2.00881938973340
H           -0.76981701913207        0.50188979431682        3.05378713830060
H           -1.16412003142809        1.68939739985396        1.78615957845169
H           -3.24090595526732        0.22013737120469        3.51924979909034
H           -2.68749071463572        1.88571541720646        3.78498832501556
H           -3.59522371696291        1.48588863660052        2.31596425611324
H           -4.77050302592297        0.81715253287477       -1.13935022490861
H           -4.67191564289807       -0.90040598054675       -1.61695208398750
H           -6.26562434212054       -1.49547050933028        0.23233239972609
H           -6.37602569515291        0.22573461000336        0.68195804280261
H           -6.98490489262166       -0.32555448529797       -0.89176217078174
