 xtb: 6.7.1 (edcfbbe)
          04092505203D

 41 40  0     0  0            999 V2000
    2.1208    2.3100    1.7336 C   0  0  0  0  0  0  0  0  0  0  0  0
    1.2875    1.1594    2.2557 C   0  0  0  0  0  0  0  0  0  0  0  0
    1.8265   -0.1464    1.9365 O   0  0  0  0  0  0  0  0  0  0  0  0
    2.4011   -0.6821    0.5732 P   0  0  0  0  0  0  0  0  0  0  0  0
    2.5458   -2.6310    0.6905 S   0  0  0  0  0  0  0  0  0  0  0  0
    3.7514    0.1380    0.4232 O   0  0  0  0  0  0  0  0  0  0  0  0
    4.5062    0.2947   -0.7923 C   0  0  0  0  0  0  0  0  0  0  0  0
    4.8681   -1.0266   -1.4374 C   0  0  0  0  0  0  0  0  0  0  0  0
    1.1888    0.0511   -1.0293 S   0  0  0  0  0  0  0  0  0  0  0  0
    0.0083   -1.3124   -1.0196 C   0  0  0  0  0  0  0  0  0  0  0  0
   -1.1328   -1.2472    0.3895 S   0  0  0  0  0  0  0  0  0  0  0  0
   -2.2719    0.3829   -0.3366 P   0  0  0  0  0  0  0  0  0  0  0  0
   -2.6467    0.4198   -2.2638 S   0  0  0  0  0  0  0  0  0  0  0  0
   -1.4049    1.5840    0.2259 O   0  0  0  0  0  0  0  0  0  0  0  0
   -1.4576    2.9065   -0.3516 C   0  0  0  0  0  0  0  0  0  0  0  0
   -2.7813    3.5852   -0.0712 C   0  0  0  0  0  0  0  0  0  0  0  0
   -3.5463    0.4328    0.6095 O   0  0  0  0  0  0  0  0  0  0  0  0
   -4.7653   -0.2634    0.2988 C   0  0  0  0  0  0  0  0  0  0  0  0
   -4.5995   -1.7674    0.3760 C   0  0  0  0  0  0  0  0  0  0  0  0
    1.7071    3.2402    2.1120 H   0  0  0  0  0  0  0  0  0  0  0  0
    3.1497    2.2133    2.0705 H   0  0  0  0  0  0  0  0  0  0  0  0
    2.1042    2.3304    0.6453 H   0  0  0  0  0  0  0  0  0  0  0  0
    0.2684    1.2022    1.8618 H   0  0  0  0  0  0  0  0  0  0  0  0
    1.2548    1.1512    3.3466 H   0  0  0  0  0  0  0  0  0  0  0  0
    3.9210    0.9117   -1.4800 H   0  0  0  0  0  0  0  0  0  0  0  0
    5.3970    0.8378   -0.4719 H   0  0  0  0  0  0  0  0  0  0  0  0
    5.3854   -1.6669   -0.7269 H   0  0  0  0  0  0  0  0  0  0  0  0
    3.9689   -1.5429   -1.7706 H   0  0  0  0  0  0  0  0  0  0  0  0
    5.5101   -0.8459   -2.2935 H   0  0  0  0  0  0  0  0  0  0  0  0
    0.5506   -2.2558   -0.9376 H   0  0  0  0  0  0  0  0  0  0  0  0
   -0.5583   -1.2521   -1.9490 H   0  0  0  0  0  0  0  0  0  0  0  0
   -0.6241    3.4310    0.1170 H   0  0  0  0  0  0  0  0  0  0  0  0
   -1.2838    2.8197   -1.4287 H   0  0  0  0  0  0  0  0  0  0  0  0
   -2.9866    3.5831    0.9961 H   0  0  0  0  0  0  0  0  0  0  0  0
   -2.7454    4.6082   -0.4321 H   0  0  0  0  0  0  0  0  0  0  0  0
   -3.5840    3.0572   -0.5846 H   0  0  0  0  0  0  0  0  0  0  0  0
   -5.4736    0.1028    1.0431 H   0  0  0  0  0  0  0  0  0  0  0  0
   -5.0884    0.0353   -0.7037 H   0  0  0  0  0  0  0  0  0  0  0  0
   -3.9318   -2.1106   -0.4137 H   0  0  0  0  0  0  0  0  0  0  0  0
   -4.1780   -2.0534    1.3366 H   0  0  0  0  0  0  0  0  0  0  0  0
   -5.5664   -2.2439    0.2499 H   0  0  0  0  0  0  0  0  0  0  0  0
  1  2  1  0  0  0  0
  2  3  1  0  0  0  0
  3  4  2  0  0  0  0
  4  5  2  0  0  0  0
  4  6  2  0  0  0  0
  6  7  1  0  0  0  0
  7  8  1  0  0  0  0
  4  9  1  0  0  0  0
  9 10  1  0  0  0  0
 10 11  1  0  0  0  0
 11 12  1  0  0  0  0
 12 13  2  0  0  0  0
 12 14  2  0  0  0  0
 14 15  1  0  0  0  0
 15 16  1  0  0  0  0
 12 17  2  0  0  0  0
 17 18  1  0  0  0  0
 18 19  1  0  0  0  0
  1 20  1  0  0  0  0
  1 21  1  0  0  0  0
  1 22  1  0  0  0  0
  2 23  1  0  0  0  0
  2 24  1  0  0  0  0
  7 25  1  0  0  0  0
  7 26  1  0  0  0  0
  8 27  1  0  0  0  0
  8 28  1  0  0  0  0
  8 29  1  0  0  0  0
 10 30  1  0  0  0  0
 10 31  1  0  0  0  0
 15 32  1  0  0  0  0
 15 33  1  0  0  0  0
 16 34  1  0  0  0  0
 16 35  1  0  0  0  0
 16 36  1  0  0  0  0
 18 37  1  0  0  0  0
 18 38  1  0  0  0  0
 19 39  1  0  0  0  0
 19 40  1  0  0  0  0
 19 41  1  0  0  0  0
M  END
