 xtb: 6.7.1 (edcfbbe)
          04092507313D

 38 37  0     0  0            999 V2000
    4.1993   -3.7147   -1.0676 C   0  0  0  0  0  0  0  0  0  0  0  0
    3.1518   -2.9387   -1.8501 C   0  0  0  0  0  0  0  0  0  0  0  0
    2.8473   -1.6868   -1.2055 O   0  0  0  0  0  0  0  0  0  0  0  0
    1.9408   -1.6751   -0.2515 C   0  0  0  0  0  0  0  0  0  0  0  0
    1.3283   -2.6453    0.1352 O   0  0  0  0  0  0  0  0  0  0  0  0
    1.7137   -0.2683    0.2729 C   0  0  0  0  0  0  0  0  0  0  0  0
    0.8980    0.5142   -0.7623 C   0  0  0  0  0  0  0  0  0  0  0  0
    1.5029    0.6948   -1.6542 H   0  0  0  0  0  0  0  0  0  0  0  0
    0.4097    1.8336   -0.1958 C   0  0  0  0  0  0  0  0  0  0  0  0
   -0.7725    2.1044   -0.0976 O   0  0  0  0  0  0  0  0  0  0  0  0
    1.3846    2.6087    0.1723 O   0  0  0  0  0  0  0  0  0  0  0  0
    1.0478    3.8765    0.7832 C   0  0  0  0  0  0  0  0  0  0  0  0
    2.3416    4.5586    1.1775 C   0  0  0  0  0  0  0  0  0  0  0  0
   -0.5614   -0.4106   -1.3587 S   0  0  0  0  0  0  0  0  0  0  0  0
   -1.9277   -0.1466    0.2457 P   0  0  0  0  0  0  0  0  0  0  0  0
   -1.3405    0.1865    2.0959 S   0  0  0  0  0  0  0  0  0  0  0  0
   -3.1617    0.6827   -0.3023 O   0  0  0  0  0  0  0  0  0  0  0  0
   -3.5622    1.9769    0.1538 C   0  0  0  0  0  0  0  0  0  0  0  0
   -2.6828   -1.5575    0.1283 O   0  0  0  0  0  0  0  0  0  0  0  0
   -2.0697   -2.7566    0.6076 C   0  0  0  0  0  0  0  0  0  0  0  0
    4.4546   -4.6189   -1.6099 H   0  0  0  0  0  0  0  0  0  0  0  0
    5.0928   -3.1108   -0.9364 H   0  0  0  0  0  0  0  0  0  0  0  0
    3.8091   -3.9886   -0.0900 H   0  0  0  0  0  0  0  0  0  0  0  0
    2.2279   -3.5166   -1.9416 H   0  0  0  0  0  0  0  0  0  0  0  0
    3.5208   -2.6534   -2.8351 H   0  0  0  0  0  0  0  0  0  0  0  0
    2.6692    0.2340    0.4196 H   0  0  0  0  0  0  0  0  0  0  0  0
    1.1719   -0.3335    1.2184 H   0  0  0  0  0  0  0  0  0  0  0  0
    0.4801    4.4650    0.0569 H   0  0  0  0  0  0  0  0  0  0  0  0
    0.4071    3.6768    1.6474 H   0  0  0  0  0  0  0  0  0  0  0  0
    2.9666    4.7072    0.3023 H   0  0  0  0  0  0  0  0  0  0  0  0
    2.1146    5.5211    1.6232 H   0  0  0  0  0  0  0  0  0  0  0  0
    2.8808    3.9510    1.8975 H   0  0  0  0  0  0  0  0  0  0  0  0
   -3.1823    2.1605    1.1601 H   0  0  0  0  0  0  0  0  0  0  0  0
   -4.6500    1.9707    0.1527 H   0  0  0  0  0  0  0  0  0  0  0  0
   -3.1749    2.7323   -0.5270 H   0  0  0  0  0  0  0  0  0  0  0  0
   -1.9539   -2.7049    1.6915 H   0  0  0  0  0  0  0  0  0  0  0  0
   -1.0892   -2.9092    0.1519 H   0  0  0  0  0  0  0  0  0  0  0  0
   -2.7462   -3.5612    0.3332 H   0  0  0  0  0  0  0  0  0  0  0  0
  1  2  1  0  0  0  0
  2  3  1  0  0  0  0
  3  4  1  0  0  0  0
  4  5  2  0  0  0  0
  4  6  1  0  0  0  0
  6  7  1  0  0  0  0
  7  8  1  0  0  0  0
  7  9  1  0  0  0  0
  9 10  2  0  0  0  0
  9 11  4  0  0  0  0
 11 12  1  0  0  0  0
 12 13  1  0  0  0  0
  7 14  1  0  0  0  0
 14 15  1  0  0  0  0
 15 16  2  0  0  0  0
 15 17  2  0  0  0  0
 17 18  1  0  0  0  0
 15 19  1  0  0  0  0
 19 20  1  0  0  0  0
  1 21  1  0  0  0  0
  1 22  1  0  0  0  0
  1 23  1  0  0  0  0
  2 24  1  0  0  0  0
  2 25  1  0  0  0  0
  6 26  1  0  0  0  0
  6 27  1  0  0  0  0
 12 28  1  0  0  0  0
 12 29  1  0  0  0  0
 13 30  1  0  0  0  0
 13 31  1  0  0  0  0
 13 32  1  0  0  0  0
 18 33  1  0  0  0  0
 18 34  1  0  0  0  0
 18 35  1  0  0  0  0
 20 36  1  0  0  0  0
 20 37  1  0  0  0  0
 20 38  1  0  0  0  0
M  END
