 xtb: 6.7.1 (edcfbbe)
          04092505213D

 41 40  0     0  0            999 V2000
    3.6697    1.6657   -0.7321 C   0  0  0  0  0  0  0  0  0  0  0  0
    2.2695    1.8247   -0.1777 C   0  0  0  0  0  0  0  0  0  0  0  0
    1.5430    0.5837   -0.2168 O   0  0  0  0  0  0  0  0  0  0  0  0
    1.9230   -0.6468    0.7310 P   0  0  0  0  0  0  0  0  0  0  0  0
    2.7014   -0.1649    2.4535 S   0  0  0  0  0  0  0  0  0  0  0  0
    2.8529   -1.6141   -0.1086 O   0  0  0  0  0  0  0  0  0  0  0  0
    2.4852   -2.0753   -1.4356 C   0  0  0  0  0  0  0  0  0  0  0  0
    3.7589   -2.2875   -2.2266 C   0  0  0  0  0  0  0  0  0  0  0  0
    0.0795   -1.6705    0.7709 S   0  0  0  0  0  0  0  0  0  0  0  0
   -0.7298   -0.6200    2.0029 C   0  0  0  0  0  0  0  0  0  0  0  0
   -1.0760    1.0656    1.4189 S   0  0  0  0  0  0  0  0  0  0  0  0
   -2.0184    0.6130   -0.4294 P   0  0  0  0  0  0  0  0  0  0  0  0
   -0.9876    0.2561   -2.0629 S   0  0  0  0  0  0  0  0  0  0  0  0
   -3.0322    1.8284   -0.6127 O   0  0  0  0  0  0  0  0  0  0  0  0
   -2.6697    3.0350   -1.3014 C   0  0  0  0  0  0  0  0  0  0  0  0
   -1.6942    3.8656   -0.4922 C   0  0  0  0  0  0  0  0  0  0  0  0
   -2.9881   -0.5348    0.0574 O   0  0  0  0  0  0  0  0  0  0  0  0
   -3.4846   -1.5895   -0.7981 C   0  0  0  0  0  0  0  0  0  0  0  0
   -3.3338   -2.9150   -0.0792 C   0  0  0  0  0  0  0  0  0  0  0  0
    3.6293    1.3002   -1.7554 H   0  0  0  0  0  0  0  0  0  0  0  0
    4.1764    2.6253   -0.7118 H   0  0  0  0  0  0  0  0  0  0  0  0
    4.2274    0.9561   -0.1204 H   0  0  0  0  0  0  0  0  0  0  0  0
    1.6680    2.5011   -0.7877 H   0  0  0  0  0  0  0  0  0  0  0  0
    2.2957    2.1783    0.8580 H   0  0  0  0  0  0  0  0  0  0  0  0
    1.9317   -3.0089   -1.3114 H   0  0  0  0  0  0  0  0  0  0  0  0
    1.8342   -1.3334   -1.9078 H   0  0  0  0  0  0  0  0  0  0  0  0
    4.2956   -1.3495   -2.3399 H   0  0  0  0  0  0  0  0  0  0  0  0
    4.3999   -2.9967   -1.7108 H   0  0  0  0  0  0  0  0  0  0  0  0
    3.5051   -2.6760   -3.2076 H   0  0  0  0  0  0  0  0  0  0  0  0
   -0.0754   -0.5095    2.8686 H   0  0  0  0  0  0  0  0  0  0  0  0
   -1.6629   -1.1102    2.2692 H   0  0  0  0  0  0  0  0  0  0  0  0
   -2.2381    2.7639   -2.2712 H   0  0  0  0  0  0  0  0  0  0  0  0
   -3.6177    3.5537   -1.4492 H   0  0  0  0  0  0  0  0  0  0  0  0
   -1.4808    4.7915   -1.0164 H   0  0  0  0  0  0  0  0  0  0  0  0
   -2.1089    4.0888    0.4873 H   0  0  0  0  0  0  0  0  0  0  0  0
   -0.7656    3.3107   -0.3545 H   0  0  0  0  0  0  0  0  0  0  0  0
   -4.5323   -1.3602   -1.0021 H   0  0  0  0  0  0  0  0  0  0  0  0
   -2.9196   -1.5797   -1.7365 H   0  0  0  0  0  0  0  0  0  0  0  0
   -3.7287   -3.7054   -0.7088 H   0  0  0  0  0  0  0  0  0  0  0  0
   -2.2836   -3.1122    0.1267 H   0  0  0  0  0  0  0  0  0  0  0  0
   -3.8814   -2.8968    0.8588 H   0  0  0  0  0  0  0  0  0  0  0  0
  1  2  1  0  0  0  0
  2  3  1  0  0  0  0
  3  4  1  0  0  0  0
  4  5  2  0  0  0  0
  4  6  2  0  0  0  0
  6  7  1  0  0  0  0
  7  8  1  0  0  0  0
  4  9  1  0  0  0  0
  9 10  1  0  0  0  0
 10 11  1  0  0  0  0
 11 12  1  0  0  0  0
 12 13  2  0  0  0  0
 12 14  2  0  0  0  0
 14 15  1  0  0  0  0
 15 16  1  0  0  0  0
 12 17  2  0  0  0  0
 17 18  1  0  0  0  0
 18 19  1  0  0  0  0
  1 20  1  0  0  0  0
  1 21  1  0  0  0  0
  1 22  1  0  0  0  0
  2 23  1  0  0  0  0
  2 24  1  0  0  0  0
  7 25  1  0  0  0  0
  7 26  1  0  0  0  0
  8 27  1  0  0  0  0
  8 28  1  0  0  0  0
  8 29  1  0  0  0  0
 10 30  1  0  0  0  0
 10 31  1  0  0  0  0
 15 32  1  0  0  0  0
 15 33  1  0  0  0  0
 16 34  1  0  0  0  0
 16 35  1  0  0  0  0
 16 36  1  0  0  0  0
 18 37  1  0  0  0  0
 18 38  1  0  0  0  0
 19 39  1  0  0  0  0
 19 40  1  0  0  0  0
 19 41  1  0  0  0  0
M  END
