7
 xtb: 6.7.1 (edcfbbe)
C           -1.24785296629205        0.17298425029952       -0.00006398367580
C            0.11404550684149       -0.41613009887488       -0.00070116871329
O            1.15110805462972        0.22979343743776        0.00015724574730
H           -1.22294431801058        1.26396569278143        0.00057708137279
H           -1.79258677208281       -0.20150192773446       -0.87625079435196
H           -1.79269458646417       -0.20254626629929        0.87561481616196
H            0.15655562321547       -1.52417506094923        0.00046135652083
