41
 xtb: 6.7.1 (edcfbbe)
C            2.24708744374144       -2.02990415101683        2.68993776221671
C            1.29652684201787       -1.68633838843237        1.57102257279688
O            1.48418841422335       -0.28811291654522        1.17399969421122
P            2.30758076395391        0.19738331993184       -0.11925029273859
S            3.24658928236120       -1.20257815090773       -1.09738207915467
O            3.13727078089488        1.45015857878730        0.45319158533698
C            3.99120197367643        1.32674422624504        1.64963163719852
C            5.40521023260089        0.96035163041405        1.27412289460144
S            0.97009753648661        1.39511184259760       -1.25411073890165
C            0.23221577678051        0.12792506352983       -2.35493373864138
S           -0.68549295465567       -1.24193036969161       -1.55375043899919
P           -2.23620109554698       -0.16365634976673       -0.58253311434430
S           -2.99453788023600        1.32919940267504       -1.58043029991328
O           -1.68363119542774        0.19002204872563        0.88619555769313
C           -1.60852066927025        1.54124840696195        1.44888828810324
C           -2.76611990801199        1.76674792055617        2.38859930903499
O           -3.13794508228900       -1.46587928586158       -0.30653342695301
C           -4.21268025293564       -1.45896649848180        0.70343088263582
C           -5.53062627792052       -1.04994426711731        0.09483628126499
H            2.10346436867372       -1.36485439072339        3.54646382330395
H            2.05381383878676       -3.05731537803353        3.01605803229648
H            3.28720097589830       -1.96380656437201        2.35574335677191
H            0.25230070721461       -1.74756661921517        1.88705262040275
H            1.44395552965746       -2.32845061051298        0.69890362813916
H            3.93904723673407        2.31585233753336        2.10938412742619
H            3.54343647171932        0.59854571734120        2.33175337352553
H            5.82008636621805        1.68006881481792        0.56268980343367
H            6.02065682065584        0.97784907671540        2.17975398964960
H            5.45695101036549       -0.04176252111925        0.84130337827211
H            1.01688961339244       -0.35652545440185       -2.94358750266980
H           -0.43456261851682        0.68095439573094       -3.02324927675374
H           -0.64764637787317        1.57254707212698        1.96831592563756
H           -1.59768514101531        2.26862923575013        0.63309574748741
H           -2.66195070155137        2.75526950633138        2.84821196467448
H           -3.71959373654689        1.73441479649829        1.85214015242850
H           -2.77783161707374        1.01680141139524        3.18477143496664
H           -4.23699802884394       -2.48957312645437        1.06337994146383
H           -3.91918454245801       -0.80516644849963        1.52953558819936
H           -5.51396868342662       -0.00750466608424       -0.23275948435700
H           -5.78406332269412       -1.68931991883952       -0.75560042981376
H           -6.31226652108265       -1.16093623987501        0.85377069413917
