 xtb: 6.7.1 (edcfbbe)
          04092507313D

 38 37  0     0  0            999 V2000
    3.0113   -3.1409    1.1071 C   0  0  0  0  0  0  0  0  0  0  0  0
    3.0733   -1.6296    1.2460 C   0  0  0  0  0  0  0  0  0  0  0  0
    2.8311   -1.0098   -0.0335 O   0  0  0  0  0  0  0  0  0  0  0  0
    1.7125   -0.3813   -0.2618 C   0  0  0  0  0  0  0  0  0  0  0  0
    0.8230   -0.2029    0.5608 O   0  0  0  0  0  0  0  0  0  0  0  0
    1.6094    0.1629   -1.6644 C   0  0  0  0  0  0  0  0  0  0  0  0
    0.3396    0.9946   -1.7586 C   0  0  0  0  0  0  0  0  0  0  0  0
    0.2907    1.5297   -2.7106 H   0  0  0  0  0  0  0  0  0  0  0  0
    0.2246    2.0021   -0.6239 C   0  0  0  0  0  0  0  0  0  0  0  0
   -0.8214    2.3293   -0.1130 O   0  0  0  0  0  0  0  0  0  0  0  0
    1.4024    2.5048   -0.3165 O   0  0  0  0  0  0  0  0  0  0  0  0
    1.4744    3.5103    0.7157 C   0  0  0  0  0  0  0  0  0  0  0  0
    2.6400    4.4300    0.4062 C   0  0  0  0  0  0  0  0  0  0  0  0
   -1.1760   -0.0271   -1.8013 S   0  0  0  0  0  0  0  0  0  0  0  0
   -1.5679   -0.9730    0.0617 P   0  0  0  0  0  0  0  0  0  0  0  0
   -0.7059   -2.6399    0.6202 S   0  0  0  0  0  0  0  0  0  0  0  0
   -1.8844    0.1045    1.2007 O   0  0  0  0  0  0  0  0  0  0  0  0
   -1.1779    0.2753    2.4222 C   0  0  0  0  0  0  0  0  0  0  0  0
   -3.0600   -1.4109   -0.3214 O   0  0  0  0  0  0  0  0  0  0  0  0
   -4.1109   -0.4901   -0.6628 C   0  0  0  0  0  0  0  0  0  0  0  0
    1.9999   -3.4522    0.8520 H   0  0  0  0  0  0  0  0  0  0  0  0
    3.6934   -3.4718    0.3298 H   0  0  0  0  0  0  0  0  0  0  0  0
    3.2903   -3.5979    2.0505 H   0  0  0  0  0  0  0  0  0  0  0  0
    4.0719   -1.2991    1.5366 H   0  0  0  0  0  0  0  0  0  0  0  0
    2.3284   -1.2716    1.9610 H   0  0  0  0  0  0  0  0  0  0  0  0
    1.5799   -0.6669   -2.3724 H   0  0  0  0  0  0  0  0  0  0  0  0
    2.4907    0.7694   -1.8765 H   0  0  0  0  0  0  0  0  0  0  0  0
    0.5219    4.0479    0.7432 H   0  0  0  0  0  0  0  0  0  0  0  0
    1.6157    2.9926    1.6697 H   0  0  0  0  0  0  0  0  0  0  0  0
    2.4861    4.9230   -0.5490 H   0  0  0  0  0  0  0  0  0  0  0  0
    2.7166    5.1801    1.1863 H   0  0  0  0  0  0  0  0  0  0  0  0
    3.5635    3.8608    0.3650 H   0  0  0  0  0  0  0  0  0  0  0  0
   -1.9298    0.5124    3.1720 H   0  0  0  0  0  0  0  0  0  0  0  0
   -0.4703    1.0960    2.3145 H   0  0  0  0  0  0  0  0  0  0  0  0
   -0.6486   -0.6421    2.6847 H   0  0  0  0  0  0  0  0  0  0  0  0
   -3.9642    0.4629   -0.1570 H   0  0  0  0  0  0  0  0  0  0  0  0
   -5.0324   -0.9614   -0.3291 H   0  0  0  0  0  0  0  0  0  0  0  0
   -4.1225   -0.3468   -1.7423 H   0  0  0  0  0  0  0  0  0  0  0  0
  1  2  1  0  0  0  0
  2  3  1  0  0  0  0
  3  4  4  0  0  0  0
  4  5  2  0  0  0  0
  4  6  1  0  0  0  0
  6  7  1  0  0  0  0
  7  8  1  0  0  0  0
  7  9  1  0  0  0  0
  9 10  2  0  0  0  0
  9 11  1  0  0  0  0
 11 12  1  0  0  0  0
 12 13  1  0  0  0  0
  7 14  1  0  0  0  0
 14 15  1  0  0  0  0
 15 16  2  0  0  0  0
 15 17  1  0  0  0  0
 17 18  1  0  0  0  0
 15 19  1  0  0  0  0
 19 20  1  0  0  0  0
  1 21  1  0  0  0  0
  1 22  1  0  0  0  0
  1 23  1  0  0  0  0
  2 24  1  0  0  0  0
  2 25  1  0  0  0  0
  6 26  1  0  0  0  0
  6 27  1  0  0  0  0
 12 28  1  0  0  0  0
 12 29  1  0  0  0  0
 13 30  1  0  0  0  0
 13 31  1  0  0  0  0
 13 32  1  0  0  0  0
 18 33  1  0  0  0  0
 18 34  1  0  0  0  0
 18 35  1  0  0  0  0
 20 36  1  0  0  0  0
 20 37  1  0  0  0  0
 20 38  1  0  0  0  0
M  END
