 xtb: 6.7.1 (edcfbbe)
          04092505203D

 41 40  0     0  0            999 V2000
    3.5651   -2.4919   -1.7658 C   0  0  0  0  0  0  0  0  0  0  0  0
    4.1823   -1.6855   -0.6399 C   0  0  0  0  0  0  0  0  0  0  0  0
    3.2052   -0.8997    0.0697 O   0  0  0  0  0  0  0  0  0  0  0  0
    2.5048    0.3568   -0.6083 P   0  0  0  0  0  0  0  0  0  0  0  0
    3.6067    1.3752   -1.8655 S   0  0  0  0  0  0  0  0  0  0  0  0
    2.1035    1.0963    0.7413 O   0  0  0  0  0  0  0  0  0  0  0  0
    1.9516    2.5244    0.8036 C   0  0  0  0  0  0  0  0  0  0  0  0
    0.8240    3.0271   -0.0752 C   0  0  0  0  0  0  0  0  0  0  0  0
    0.6728   -0.4194   -1.3335 S   0  0  0  0  0  0  0  0  0  0  0  0
    0.2780   -1.4322    0.1456 C   0  0  0  0  0  0  0  0  0  0  0  0
   -1.4719   -1.8216    0.2113 S   0  0  0  0  0  0  0  0  0  0  0  0
   -2.1305    0.0954    0.8778 P   0  0  0  0  0  0  0  0  0  0  0  0
   -1.0645    0.7835    2.3723 S   0  0  0  0  0  0  0  0  0  0  0  0
   -3.6828   -0.0766    1.1559 O   0  0  0  0  0  0  0  0  0  0  0  0
   -4.1902   -0.7711    2.3117 C   0  0  0  0  0  0  0  0  0  0  0  0
   -4.5072   -2.2169    1.9844 C   0  0  0  0  0  0  0  0  0  0  0  0
   -2.1167    1.0887   -0.3446 O   0  0  0  0  0  0  0  0  0  0  0  0
   -3.0805    1.1314   -1.4268 C   0  0  0  0  0  0  0  0  0  0  0  0
   -3.0750   -0.1295   -2.2645 C   0  0  0  0  0  0  0  0  0  0  0  0
    4.3361   -3.0953   -2.2343 H   0  0  0  0  0  0  0  0  0  0  0  0
    2.7814   -3.1449   -1.3905 H   0  0  0  0  0  0  0  0  0  0  0  0
    3.1410   -1.8213   -2.5130 H   0  0  0  0  0  0  0  0  0  0  0  0
    4.9497   -1.0108   -1.0319 H   0  0  0  0  0  0  0  0  0  0  0  0
    4.6115   -2.3267    0.1311 H   0  0  0  0  0  0  0  0  0  0  0  0
    1.7512    2.7178    1.8588 H   0  0  0  0  0  0  0  0  0  0  0  0
    2.8995    2.9846    0.5088 H   0  0  0  0  0  0  0  0  0  0  0  0
    0.7325    4.1022    0.0405 H   0  0  0  0  0  0  0  0  0  0  0  0
    1.0356    2.7981   -1.1199 H   0  0  0  0  0  0  0  0  0  0  0  0
   -0.1162    2.5575    0.2061 H   0  0  0  0  0  0  0  0  0  0  0  0
    0.5605   -0.8721    1.0395 H   0  0  0  0  0  0  0  0  0  0  0  0
    0.8090   -2.3781    0.0835 H   0  0  0  0  0  0  0  0  0  0  0  0
   -3.4582   -0.6931    3.1218 H   0  0  0  0  0  0  0  0  0  0  0  0
   -5.0923   -0.2213    2.5869 H   0  0  0  0  0  0  0  0  0  0  0  0
   -5.2158   -2.2657    1.1626 H   0  0  0  0  0  0  0  0  0  0  0  0
   -3.6041   -2.7530    1.7016 H   0  0  0  0  0  0  0  0  0  0  0  0
   -4.9423   -2.6895    2.8592 H   0  0  0  0  0  0  0  0  0  0  0  0
   -4.0660    1.3151   -0.9957 H   0  0  0  0  0  0  0  0  0  0  0  0
   -2.7582    1.9974   -2.0070 H   0  0  0  0  0  0  0  0  0  0  0  0
   -3.7085    0.0240   -3.1326 H   0  0  0  0  0  0  0  0  0  0  0  0
   -2.0640   -0.3570   -2.5969 H   0  0  0  0  0  0  0  0  0  0  0  0
   -3.4573   -0.9717   -1.6921 H   0  0  0  0  0  0  0  0  0  0  0  0
  1  2  1  0  0  0  0
  2  3  1  0  0  0  0
  3  4  2  0  0  0  0
  4  5  2  0  0  0  0
  4  6  2  0  0  0  0
  6  7  1  0  0  0  0
  7  8  1  0  0  0  0
  4  9  1  0  0  0  0
  9 10  1  0  0  0  0
 10 11  1  0  0  0  0
 11 12  1  0  0  0  0
 12 13  2  0  0  0  0
 12 14  2  0  0  0  0
 14 15  1  0  0  0  0
 15 16  1  0  0  0  0
 12 17  2  0  0  0  0
 17 18  1  0  0  0  0
 18 19  1  0  0  0  0
  1 20  1  0  0  0  0
  1 21  1  0  0  0  0
  1 22  1  0  0  0  0
  2 23  1  0  0  0  0
  2 24  1  0  0  0  0
  7 25  1  0  0  0  0
  7 26  1  0  0  0  0
  8 27  1  0  0  0  0
  8 28  1  0  0  0  0
  8 29  1  0  0  0  0
 10 30  1  0  0  0  0
 10 31  1  0  0  0  0
 15 32  1  0  0  0  0
 15 33  1  0  0  0  0
 16 34  1  0  0  0  0
 16 35  1  0  0  0  0
 16 36  1  0  0  0  0
 18 37  1  0  0  0  0
 18 38  1  0  0  0  0
 19 39  1  0  0  0  0
 19 40  1  0  0  0  0
 19 41  1  0  0  0  0
M  END
