 xtb: 6.7.1 (edcfbbe)
          04092505203D

 41 40  0     0  0            999 V2000
    4.0655   -0.8137   -2.9184 C   0  0  0  0  0  0  0  0  0  0  0  0
    4.2353   -1.2284   -1.4707 C   0  0  0  0  0  0  0  0  0  0  0  0
    3.9546   -0.1003   -0.6005 O   0  0  0  0  0  0  0  0  0  0  0  0
    2.7241   -0.0544    0.3836 P   0  0  0  0  0  0  0  0  0  0  0  0
    2.6676    1.6260    1.3771 S   0  0  0  0  0  0  0  0  0  0  0  0
    2.9595   -1.3673    1.2545 O   0  0  0  0  0  0  0  0  0  0  0  0
    2.3402   -1.5700    2.5362 C   0  0  0  0  0  0  0  0  0  0  0  0
    0.8783   -1.9483    2.4087 C   0  0  0  0  0  0  0  0  0  0  0  0
    1.0368   -0.5392   -0.8446 S   0  0  0  0  0  0  0  0  0  0  0  0
    0.3423    1.1265   -0.9857 C   0  0  0  0  0  0  0  0  0  0  0  0
   -0.7735    1.5524    0.3815 S   0  0  0  0  0  0  0  0  0  0  0  0
   -2.3424    0.2670   -0.2114 P   0  0  0  0  0  0  0  0  0  0  0  0
   -2.6694    0.0857   -2.1401 S   0  0  0  0  0  0  0  0  0  0  0  0
   -3.5934    0.7399    0.6465 O   0  0  0  0  0  0  0  0  0  0  0  0
   -4.5218    1.7316    0.1763 C   0  0  0  0  0  0  0  0  0  0  0  0
   -3.8945    3.1084    0.0938 C   0  0  0  0  0  0  0  0  0  0  0  0
   -1.9075   -1.0517    0.5488 O   0  0  0  0  0  0  0  0  0  0  0  0
   -2.3750   -2.3580    0.1536 C   0  0  0  0  0  0  0  0  0  0  0  0
   -3.8591   -2.5240    0.4028 C   0  0  0  0  0  0  0  0  0  0  0  0
    4.6728    0.0626   -3.1269 H   0  0  0  0  0  0  0  0  0  0  0  0
    4.3807   -1.6296   -3.5610 H   0  0  0  0  0  0  0  0  0  0  0  0
    3.0246   -0.5794   -3.1280 H   0  0  0  0  0  0  0  0  0  0  0  0
    5.2678   -1.5054   -1.2534 H   0  0  0  0  0  0  0  0  0  0  0  0
    3.5705   -2.0555   -1.2122 H   0  0  0  0  0  0  0  0  0  0  0  0
    2.9234   -2.3767    2.9831 H   0  0  0  0  0  0  0  0  0  0  0  0
    2.4563   -0.6558    3.1274 H   0  0  0  0  0  0  0  0  0  0  0  0
    0.4954   -2.2301    3.3843 H   0  0  0  0  0  0  0  0  0  0  0  0
    0.2956   -1.1071    2.0361 H   0  0  0  0  0  0  0  0  0  0  0  0
    0.7680   -2.7837    1.7215 H   0  0  0  0  0  0  0  0  0  0  0  0
   -0.2148    1.1560   -1.9222 H   0  0  0  0  0  0  0  0  0  0  0  0
    1.1440    1.8622   -0.9709 H   0  0  0  0  0  0  0  0  0  0  0  0
   -4.8929    1.4202   -0.8057 H   0  0  0  0  0  0  0  0  0  0  0  0
   -5.3311    1.7008    0.9071 H   0  0  0  0  0  0  0  0  0  0  0  0
   -3.4283    3.3690    1.0409 H   0  0  0  0  0  0  0  0  0  0  0  0
   -3.1337    3.1259   -0.6857 H   0  0  0  0  0  0  0  0  0  0  0  0
   -4.6600    3.8396   -0.1453 H   0  0  0  0  0  0  0  0  0  0  0  0
   -2.1387   -2.5029   -0.9054 H   0  0  0  0  0  0  0  0  0  0  0  0
   -1.7832   -3.0419    0.7629 H   0  0  0  0  0  0  0  0  0  0  0  0
   -4.0946   -2.2875    1.4371 H   0  0  0  0  0  0  0  0  0  0  0  0
   -4.4209   -1.8549   -0.2479 H   0  0  0  0  0  0  0  0  0  0  0  0
   -4.1485   -3.5482    0.1892 H   0  0  0  0  0  0  0  0  0  0  0  0
  1  2  1  0  0  0  0
  2  3  1  0  0  0  0
  3  4  2  0  0  0  0
  4  5  2  0  0  0  0
  4  6  2  0  0  0  0
  6  7  1  0  0  0  0
  7  8  1  0  0  0  0
  4  9  1  0  0  0  0
  9 10  1  0  0  0  0
 10 11  1  0  0  0  0
 11 12  1  0  0  0  0
 12 13  2  0  0  0  0
 12 14  2  0  0  0  0
 14 15  1  0  0  0  0
 15 16  1  0  0  0  0
 12 17  2  0  0  0  0
 17 18  1  0  0  0  0
 18 19  1  0  0  0  0
  1 20  1  0  0  0  0
  1 21  1  0  0  0  0
  1 22  1  0  0  0  0
  2 23  1  0  0  0  0
  2 24  1  0  0  0  0
  7 25  1  0  0  0  0
  7 26  1  0  0  0  0
  8 27  1  0  0  0  0
  8 28  1  0  0  0  0
  8 29  1  0  0  0  0
 10 30  1  0  0  0  0
 10 31  1  0  0  0  0
 15 32  1  0  0  0  0
 15 33  1  0  0  0  0
 16 34  1  0  0  0  0
 16 35  1  0  0  0  0
 16 36  1  0  0  0  0
 18 37  1  0  0  0  0
 18 38  1  0  0  0  0
 19 39  1  0  0  0  0
 19 40  1  0  0  0  0
 19 41  1  0  0  0  0
M  END
