 xtb: 6.7.1 (edcfbbe)
          04092507313D

 38 37  0     0  0            999 V2000
    1.8870   -3.6755   -2.1187 C   0  0  0  0  0  0  0  0  0  0  0  0
    3.1170   -2.8925   -1.6882 C   0  0  0  0  0  0  0  0  0  0  0  0
    2.7410   -1.5988   -1.1797 O   0  0  0  0  0  0  0  0  0  0  0  0
    2.3694   -1.5033    0.0816 C   0  0  0  0  0  0  0  0  0  0  0  0
    2.3949   -2.4130    0.8793 O   0  0  0  0  0  0  0  0  0  0  0  0
    1.9128   -0.0970    0.4276 C   0  0  0  0  0  0  0  0  0  0  0  0
    1.0241    0.4798   -0.6732 C   0  0  0  0  0  0  0  0  0  0  0  0
    1.6008    0.5984   -1.5942 H   0  0  0  0  0  0  0  0  0  0  0  0
    0.4285    1.8120   -0.2679 C   0  0  0  0  0  0  0  0  0  0  0  0
   -0.7719    2.0044   -0.2279 O   0  0  0  0  0  0  0  0  0  0  0  0
    1.3349    2.6960    0.0283 O   0  0  0  0  0  0  0  0  0  0  0  0
    0.8853    3.9932    0.4833 C   0  0  0  0  0  0  0  0  0  0  0  0
    2.1111    4.8289    0.7889 C   0  0  0  0  0  0  0  0  0  0  0  0
   -0.3455   -0.6325   -1.1226 S   0  0  0  0  0  0  0  0  0  0  0  0
   -1.7255   -0.2786    0.4703 P   0  0  0  0  0  0  0  0  0  0  0  0
   -1.1795    0.4094    2.2234 S   0  0  0  0  0  0  0  0  0  0  0  0
   -3.0658    0.3054   -0.1746 O   0  0  0  0  0  0  0  0  0  0  0  0
   -3.5031    1.6628   -0.2227 C   0  0  0  0  0  0  0  0  0  0  0  0
   -2.2148   -1.7765    0.7182 O   0  0  0  0  0  0  0  0  0  0  0  0
   -2.7819   -2.6044   -0.3096 C   0  0  0  0  0  0  0  0  0  0  0  0
    1.3074   -3.0961   -2.8323 H   0  0  0  0  0  0  0  0  0  0  0  0
    2.1950   -4.6107   -2.5739 H   0  0  0  0  0  0  0  0  0  0  0  0
    1.2624   -3.8906   -1.2545 H   0  0  0  0  0  0  0  0  0  0  0  0
    3.7668   -2.6721   -2.5349 H   0  0  0  0  0  0  0  0  0  0  0  0
    3.6674   -3.4294   -0.9106 H   0  0  0  0  0  0  0  0  0  0  0  0
    2.7911    0.5411    0.5447 H   0  0  0  0  0  0  0  0  0  0  0  0
    1.3825   -0.1408    1.3820 H   0  0  0  0  0  0  0  0  0  0  0  0
    0.2731    4.4385   -0.3062 H   0  0  0  0  0  0  0  0  0  0  0  0
    0.2588    3.8420    1.3677 H   0  0  0  0  0  0  0  0  0  0  0  0
    1.7969    5.8139    1.1172 H   0  0  0  0  0  0  0  0  0  0  0  0
    2.6961    4.3617    1.5751 H   0  0  0  0  0  0  0  0  0  0  0  0
    2.7274    4.9265   -0.0995 H   0  0  0  0  0  0  0  0  0  0  0  0
   -3.0898    2.1518   -1.1024 H   0  0  0  0  0  0  0  0  0  0  0  0
   -3.1869    2.1945    0.6743 H   0  0  0  0  0  0  0  0  0  0  0  0
   -4.5886    1.6143   -0.2770 H   0  0  0  0  0  0  0  0  0  0  0  0
   -2.8783   -3.5900    0.1390 H   0  0  0  0  0  0  0  0  0  0  0  0
   -2.1167   -2.6393   -1.1732 H   0  0  0  0  0  0  0  0  0  0  0  0
   -3.7549   -2.2148   -0.6031 H   0  0  0  0  0  0  0  0  0  0  0  0
  1  2  1  0  0  0  0
  2  3  1  0  0  0  0
  3  4  1  0  0  0  0
  4  5  2  0  0  0  0
  4  6  1  0  0  0  0
  6  7  1  0  0  0  0
  7  8  1  0  0  0  0
  7  9  1  0  0  0  0
  9 10  2  0  0  0  0
  9 11  4  0  0  0  0
 11 12  1  0  0  0  0
 12 13  1  0  0  0  0
  7 14  1  0  0  0  0
 14 15  1  0  0  0  0
 15 16  2  0  0  0  0
 15 17  2  0  0  0  0
 17 18  1  0  0  0  0
 15 19  1  0  0  0  0
 19 20  1  0  0  0  0
  1 21  1  0  0  0  0
  1 22  1  0  0  0  0
  1 23  1  0  0  0  0
  2 24  1  0  0  0  0
  2 25  1  0  0  0  0
  6 26  1  0  0  0  0
  6 27  1  0  0  0  0
 12 28  1  0  0  0  0
 12 29  1  0  0  0  0
 13 30  1  0  0  0  0
 13 31  1  0  0  0  0
 13 32  1  0  0  0  0
 18 33  1  0  0  0  0
 18 34  1  0  0  0  0
 18 35  1  0  0  0  0
 20 36  1  0  0  0  0
 20 37  1  0  0  0  0
 20 38  1  0  0  0  0
M  END
