 xtb: 6.7.1 (edcfbbe)
          04092505213D

 41 40  0     0  0            999 V2000
    5.5105   -0.8311   -1.2414 C   0  0  0  0  0  0  0  0  0  0  0  0
    4.1426   -1.1674   -1.7966 C   0  0  0  0  0  0  0  0  0  0  0  0
    3.1668   -1.3378   -0.7484 O   0  0  0  0  0  0  0  0  0  0  0  0
    2.6487   -0.1197    0.1269 P   0  0  0  0  0  0  0  0  0  0  0  0
    2.4893    1.5877   -0.8397 S   0  0  0  0  0  0  0  0  0  0  0  0
    3.6619   -0.1041    1.3492 O   0  0  0  0  0  0  0  0  0  0  0  0
    3.7812    1.0261    2.2311 C   0  0  0  0  0  0  0  0  0  0  0  0
    2.5117    1.2580    3.0243 C   0  0  0  0  0  0  0  0  0  0  0  0
    0.9308   -1.0485    0.9222 S   0  0  0  0  0  0  0  0  0  0  0  0
   -0.0408   -1.0843   -0.6062 C   0  0  0  0  0  0  0  0  0  0  0  0
   -0.7513    0.5392   -1.0566 S   0  0  0  0  0  0  0  0  0  0  0  0
   -2.7489    0.1713   -0.4753 P   0  0  0  0  0  0  0  0  0  0  0  0
   -4.0145    1.6522   -0.6695 S   0  0  0  0  0  0  0  0  0  0  0  0
   -2.6816   -0.4749    0.9825 O   0  0  0  0  0  0  0  0  0  0  0  0
   -2.8433    0.3146    2.1712 C   0  0  0  0  0  0  0  0  0  0  0  0
   -1.6305    1.1804    2.4440 C   0  0  0  0  0  0  0  0  0  0  0  0
   -3.0214   -1.1131   -1.3715 O   0  0  0  0  0  0  0  0  0  0  0  0
   -4.3606   -1.5374   -1.7021 C   0  0  0  0  0  0  0  0  0  0  0  0
   -5.1155   -2.0352   -0.4876 C   0  0  0  0  0  0  0  0  0  0  0  0
    6.2352   -0.8235   -2.0495 H   0  0  0  0  0  0  0  0  0  0  0  0
    5.4881    0.1534   -0.7764 H   0  0  0  0  0  0  0  0  0  0  0  0
    5.8039   -1.5659   -0.4965 H   0  0  0  0  0  0  0  0  0  0  0  0
    4.1406   -2.1272   -2.3152 H   0  0  0  0  0  0  0  0  0  0  0  0
    3.7949   -0.3766   -2.4696 H   0  0  0  0  0  0  0  0  0  0  0  0
    4.6223    0.7685    2.8758 H   0  0  0  0  0  0  0  0  0  0  0  0
    4.0243    1.9090    1.6312 H   0  0  0  0  0  0  0  0  0  0  0  0
    2.6763    2.0478    3.7501 H   0  0  0  0  0  0  0  0  0  0  0  0
    1.7093    1.5612    2.3516 H   0  0  0  0  0  0  0  0  0  0  0  0
    2.2163    0.3470    3.5389 H   0  0  0  0  0  0  0  0  0  0  0  0
   -0.8492   -1.7929   -0.4532 H   0  0  0  0  0  0  0  0  0  0  0  0
    0.6008   -1.3907   -1.4285 H   0  0  0  0  0  0  0  0  0  0  0  0
   -3.7388    0.9342    2.0553 H   0  0  0  0  0  0  0  0  0  0  0  0
   -2.9959   -0.4223    2.9606 H   0  0  0  0  0  0  0  0  0  0  0  0
   -0.7398    0.5626    2.5278 H   0  0  0  0  0  0  0  0  0  0  0  0
   -1.4937    1.8932    1.6300 H   0  0  0  0  0  0  0  0  0  0  0  0
   -1.7782    1.7284    3.3688 H   0  0  0  0  0  0  0  0  0  0  0  0
   -4.8853   -0.6947   -2.1630 H   0  0  0  0  0  0  0  0  0  0  0  0
   -4.2073   -2.3275   -2.4384 H   0  0  0  0  0  0  0  0  0  0  0  0
   -6.0725   -2.4399   -0.8018 H   0  0  0  0  0  0  0  0  0  0  0  0
   -4.5454   -2.8072    0.0225 H   0  0  0  0  0  0  0  0  0  0  0  0
   -5.2903   -1.2104    0.2017 H   0  0  0  0  0  0  0  0  0  0  0  0
  1  2  1  0  0  0  0
  2  3  1  0  0  0  0
  3  4  2  0  0  0  0
  4  5  2  0  0  0  0
  4  6  2  0  0  0  0
  6  7  1  0  0  0  0
  7  8  1  0  0  0  0
  4  9  1  0  0  0  0
  9 10  1  0  0  0  0
 10 11  1  0  0  0  0
 11 12  1  0  0  0  0
 12 13  2  0  0  0  0
 12 14  2  0  0  0  0
 14 15  1  0  0  0  0
 15 16  1  0  0  0  0
 12 17  2  0  0  0  0
 17 18  1  0  0  0  0
 18 19  1  0  0  0  0
  1 20  1  0  0  0  0
  1 21  1  0  0  0  0
  1 22  1  0  0  0  0
  2 23  1  0  0  0  0
  2 24  1  0  0  0  0
  7 25  1  0  0  0  0
  7 26  1  0  0  0  0
  8 27  1  0  0  0  0
  8 28  1  0  0  0  0
  8 29  1  0  0  0  0
 10 30  1  0  0  0  0
 10 31  1  0  0  0  0
 15 32  1  0  0  0  0
 15 33  1  0  0  0  0
 16 34  1  0  0  0  0
 16 35  1  0  0  0  0
 16 36  1  0  0  0  0
 18 37  1  0  0  0  0
 18 38  1  0  0  0  0
 19 39  1  0  0  0  0
 19 40  1  0  0  0  0
 19 41  1  0  0  0  0
M  END
