  17
 
 C         -1.8510336096       -1.2588926718        0.4442716679
 C         -1.4695650298        0.0040672520       -0.3238198916
 C         -2.4466233354        1.1397539069       -0.0318941694
 C         -0.0524593279        0.4400486459        0.0421842877
 O          0.8715533062       -0.5726184952       -0.4019339038
 C          2.1408372464       -0.3760944239       -0.1736824796
 O          2.6340970127        0.5758269081        0.3786497592
 H         -1.1336022059       -2.0508860477        0.2458992050
 H         -2.8373534659       -1.5995553244        0.1422229041
 H         -1.8653946615       -1.0612544964        1.5137246357
 H         -1.4808413378       -0.2173096403       -1.3952388530
 H         -2.1913638870        2.0268623690       -0.6053183027
 H         -2.4259475588        1.3937205871        1.0250137885
 H         -3.4560394766        0.8372472197       -0.2943259059
 H          0.2148831815        1.3855119310       -0.4402496029
 H          0.0603632881        0.5634603108        1.1240952055
 H          2.7243414073       -1.2232575693       -0.5652342057
          17
        -23.94751973
 C         -2.2220316760       -1.1751800552        0.0803269880
 C         -1.1545457146       -0.1455188494       -0.2794919842
 C         -1.7734390411        1.2332997586       -0.4950533083
 C         -0.1024864213       -0.0899457868        0.8326697277
 O          0.9851777005        0.7844541411        0.4792914210
 C          2.0075647341        0.2753541957       -0.1537794080
 O          2.1673797425       -0.8762424420       -0.4722924118
 H         -1.7815748496       -2.1621173761        0.1953904949
 H         -2.9715789170       -1.2215570221       -0.7044615778
 H         -2.7119135506       -0.9016689861        1.0113503147
 H         -0.6491185499       -0.4610909469       -1.1995634831
 H         -1.0005453985        1.9707436999       -0.6978248957
 H         -2.3215436612        1.5412977378        0.3919299794
 H         -2.4603858378        1.2099916143       -1.3365322957
 H         -0.5229881727        0.3343270781        1.7449224480
 H          0.3011260839       -1.0880718333        1.0253463694
 H          2.7443033798        1.0672307505       -0.3589981940
