 xtb: 6.7.1 (edcfbbe)
          04092514003D

 41 40  0     0  0            999 V2000
    1.0146    1.8612    2.9420 C   0  0  0  0  0  0  0  0  0  0  0  0
    2.0567    1.5709    1.8822 C   0  0  0  0  0  0  0  0  0  0  0  0
    2.1715    0.1296    1.7571 O   0  0  0  0  0  0  0  0  0  0  0  0
    2.7240   -0.5696    0.4571 P   0  0  0  0  0  0  0  0  0  0  0  0
    2.8901   -2.5035    0.6836 S   0  0  0  0  0  0  0  0  0  0  0  0
    4.0712    0.2367    0.1989 O   0  0  0  0  0  0  0  0  0  0  0  0
    5.1800   -0.2777   -0.5613 C   0  0  0  0  0  0  0  0  0  0  0  0
    4.8837   -0.3474   -2.0451 C   0  0  0  0  0  0  0  0  0  0  0  0
    1.4381    0.0782   -1.1195 S   0  0  0  0  0  0  0  0  0  0  0  0
    0.1093   -1.1146   -0.8230 C   0  0  0  0  0  0  0  0  0  0  0  0
   -0.9199   -0.7221    0.6225 S   0  0  0  0  0  0  0  0  0  0  0  0
   -2.6783    0.0243   -0.3166 P   0  0  0  0  0  0  0  0  0  0  0  0
   -2.7450   -0.1611   -2.2723 S   0  0  0  0  0  0  0  0  0  0  0  0
   -2.9217    1.5040    0.2173 O   0  0  0  0  0  0  0  0  0  0  0  0
   -2.5150    2.6766   -0.5070 C   0  0  0  0  0  0  0  0  0  0  0  0
   -1.0267    2.9276   -0.3835 C   0  0  0  0  0  0  0  0  0  0  0  0
   -3.7277   -0.7889    0.5475 O   0  0  0  0  0  0  0  0  0  0  0  0
   -5.0636   -0.3252    0.8519 C   0  0  0  0  0  0  0  0  0  0  0  0
   -5.9464   -0.2480   -0.3775 C   0  0  0  0  0  0  0  0  0  0  0  0
    0.0581    1.4313    2.6539 H   0  0  0  0  0  0  0  0  0  0  0  0
    1.3159    1.4230    3.8891 H   0  0  0  0  0  0  0  0  0  0  0  0
    0.9141    2.9357    3.0593 H   0  0  0  0  0  0  0  0  0  0  0  0
    3.0378    1.9576    2.1640 H   0  0  0  0  0  0  0  0  0  0  0  0
    1.7730    1.9844    0.9098 H   0  0  0  0  0  0  0  0  0  0  0  0
    5.9866    0.4254   -0.3468 H   0  0  0  0  0  0  0  0  0  0  0  0
    5.4364   -1.2677   -0.1718 H   0  0  0  0  0  0  0  0  0  0  0  0
    4.1142   -1.0927   -2.2396 H   0  0  0  0  0  0  0  0  0  0  0  0
    4.5404    0.6167   -2.4106 H   0  0  0  0  0  0  0  0  0  0  0  0
    5.7887   -0.6314   -2.5733 H   0  0  0  0  0  0  0  0  0  0  0  0
    0.5564   -2.0937   -0.6484 H   0  0  0  0  0  0  0  0  0  0  0  0
   -0.5203   -1.1180   -1.7163 H   0  0  0  0  0  0  0  0  0  0  0  0
   -2.8018    2.5551   -1.5566 H   0  0  0  0  0  0  0  0  0  0  0  0
   -3.0962    3.4805   -0.0526 H   0  0  0  0  0  0  0  0  0  0  0  0
   -0.4705    2.1368   -0.8859 H   0  0  0  0  0  0  0  0  0  0  0  0
   -0.7840    3.8757   -0.8526 H   0  0  0  0  0  0  0  0  0  0  0  0
   -0.7373    2.9593    0.6635 H   0  0  0  0  0  0  0  0  0  0  0  0
   -5.4335   -1.0679    1.5606 H   0  0  0  0  0  0  0  0  0  0  0  0
   -4.9890    0.6485    1.3402 H   0  0  0  0  0  0  0  0  0  0  0  0
   -5.9732   -1.2082   -0.8871 H   0  0  0  0  0  0  0  0  0  0  0  0
   -6.9536    0.0253   -0.0774 H   0  0  0  0  0  0  0  0  0  0  0  0
   -5.5674    0.5006   -1.0718 H   0  0  0  0  0  0  0  0  0  0  0  0
  1  2  1  0  0  0  0
  2  3  1  0  0  0  0
  3  4  2  0  0  0  0
  4  5  2  0  0  0  0
  4  6  2  0  0  0  0
  6  7  1  0  0  0  0
  7  8  1  0  0  0  0
  4  9  1  0  0  0  0
  9 10  1  0  0  0  0
 10 11  1  0  0  0  0
 11 12  1  0  0  0  0
 12 13  2  0  0  0  0
 12 14  2  0  0  0  0
 14 15  1  0  0  0  0
 15 16  1  0  0  0  0
 12 17  2  0  0  0  0
 17 18  1  0  0  0  0
 18 19  1  0  0  0  0
  1 20  1  0  0  0  0
  1 21  1  0  0  0  0
  1 22  1  0  0  0  0
  2 23  1  0  0  0  0
  2 24  1  0  0  0  0
  7 25  1  0  0  0  0
  7 26  1  0  0  0  0
  8 27  1  0  0  0  0
  8 28  1  0  0  0  0
  8 29  1  0  0  0  0
 10 30  1  0  0  0  0
 10 31  1  0  0  0  0
 15 32  1  0  0  0  0
 15 33  1  0  0  0  0
 16 34  1  0  0  0  0
 16 35  1  0  0  0  0
 16 36  1  0  0  0  0
 18 37  1  0  0  0  0
 18 38  1  0  0  0  0
 19 39  1  0  0  0  0
 19 40  1  0  0  0  0
 19 41  1  0  0  0  0
M  END
