 xtb: 6.7.1 (edcfbbe)
          04092507313D

 38 37  0     0  0            999 V2000
    3.6204   -4.0855   -0.4766 C   0  0  0  0  0  0  0  0  0  0  0  0
    2.1891   -3.6856   -0.7971 C   0  0  0  0  0  0  0  0  0  0  0  0
    1.8915   -2.3709   -0.2879 O   0  0  0  0  0  0  0  0  0  0  0  0
    2.2393   -1.3279   -1.0147 C   0  0  0  0  0  0  0  0  0  0  0  0
    2.7696   -1.3867   -2.1005 O   0  0  0  0  0  0  0  0  0  0  0  0
    1.8477   -0.0268   -0.3376 C   0  0  0  0  0  0  0  0  0  0  0  0
    0.7474    0.6403   -1.1655 C   0  0  0  0  0  0  0  0  0  0  0  0
    1.1149    0.8234   -2.1793 H   0  0  0  0  0  0  0  0  0  0  0  0
    0.2944    1.9460   -0.5427 C   0  0  0  0  0  0  0  0  0  0  0  0
   -0.8574    2.1363   -0.2009 O   0  0  0  0  0  0  0  0  0  0  0  0
    1.2673    2.8008   -0.4298 O   0  0  0  0  0  0  0  0  0  0  0  0
    1.0101    4.0537    0.2460 C   0  0  0  0  0  0  0  0  0  0  0  0
    1.2191    3.8960    1.7429 C   0  0  0  0  0  0  0  0  0  0  0  0
   -0.7145   -0.4320   -1.3710 S   0  0  0  0  0  0  0  0  0  0  0  0
   -1.7332   -0.1378    0.4773 P   0  0  0  0  0  0  0  0  0  0  0  0
   -0.7589    0.3062    2.1297 S   0  0  0  0  0  0  0  0  0  0  0  0
   -3.1116    0.5913    0.1984 O   0  0  0  0  0  0  0  0  0  0  0  0
   -3.4861    1.8833    0.6802 C   0  0  0  0  0  0  0  0  0  0  0  0
   -2.4087   -1.5889    0.5863 O   0  0  0  0  0  0  0  0  0  0  0  0
   -1.6178   -2.7452    0.8672 C   0  0  0  0  0  0  0  0  0  0  0  0
    3.7953   -4.0226    0.5939 H   0  0  0  0  0  0  0  0  0  0  0  0
    3.7897   -5.1045   -0.8083 H   0  0  0  0  0  0  0  0  0  0  0  0
    4.3165   -3.4267   -0.9903 H   0  0  0  0  0  0  0  0  0  0  0  0
    1.4739   -4.3400   -0.2982 H   0  0  0  0  0  0  0  0  0  0  0  0
    2.0187   -3.6849   -1.8774 H   0  0  0  0  0  0  0  0  0  0  0  0
    2.7116    0.6387   -0.3115 H   0  0  0  0  0  0  0  0  0  0  0  0
    1.5028   -0.2336    0.6765 H   0  0  0  0  0  0  0  0  0  0  0  0
    1.7291    4.7473   -0.1890 H   0  0  0  0  0  0  0  0  0  0  0  0
   -0.0124    4.3685    0.0239 H   0  0  0  0  0  0  0  0  0  0  0  0
    1.0203    4.8422    2.2348 H   0  0  0  0  0  0  0  0  0  0  0  0
    0.5433    3.1415    2.1425 H   0  0  0  0  0  0  0  0  0  0  0  0
    2.2403    3.5911    1.9515 H   0  0  0  0  0  0  0  0  0  0  0  0
   -3.3209    2.6206   -0.1031 H   0  0  0  0  0  0  0  0  0  0  0  0
   -2.9009    2.1467    1.5626 H   0  0  0  0  0  0  0  0  0  0  0  0
   -4.5421    1.8134    0.9320 H   0  0  0  0  0  0  0  0  0  0  0  0
   -1.0158   -2.5799    1.7633 H   0  0  0  0  0  0  0  0  0  0  0  0
   -0.9652   -2.9710    0.0228 H   0  0  0  0  0  0  0  0  0  0  0  0
   -2.3271   -3.5527    1.0287 H   0  0  0  0  0  0  0  0  0  0  0  0
  1  2  1  0  0  0  0
  2  3  1  0  0  0  0
  3  4  1  0  0  0  0
  4  5  2  0  0  0  0
  4  6  1  0  0  0  0
  6  7  1  0  0  0  0
  7  8  1  0  0  0  0
  7  9  1  0  0  0  0
  9 10  2  0  0  0  0
  9 11  4  0  0  0  0
 11 12  1  0  0  0  0
 12 13  1  0  0  0  0
  7 14  1  0  0  0  0
 14 15  1  0  0  0  0
 15 16  2  0  0  0  0
 15 17  2  0  0  0  0
 17 18  1  0  0  0  0
 15 19  1  0  0  0  0
 19 20  1  0  0  0  0
  1 21  1  0  0  0  0
  1 22  1  0  0  0  0
  1 23  1  0  0  0  0
  2 24  1  0  0  0  0
  2 25  1  0  0  0  0
  6 26  1  0  0  0  0
  6 27  1  0  0  0  0
 12 28  1  0  0  0  0
 12 29  1  0  0  0  0
 13 30  1  0  0  0  0
 13 31  1  0  0  0  0
 13 32  1  0  0  0  0
 18 33  1  0  0  0  0
 18 34  1  0  0  0  0
 18 35  1  0  0  0  0
 20 36  1  0  0  0  0
 20 37  1  0  0  0  0
 20 38  1  0  0  0  0
M  END
