 xtb: 6.7.1 (edcfbbe)
          04092513583D

 41 40  0     0  0            999 V2000
    2.5216   -1.4771    3.0724 C   0  0  0  0  0  0  0  0  0  0  0  0
    1.3977   -1.6253    2.0681 C   0  0  0  0  0  0  0  0  0  0  0  0
    1.2205   -0.4290    1.2843 O   0  0  0  0  0  0  0  0  0  0  0  0
    2.2283   -0.0045    0.1351 P   0  0  0  0  0  0  0  0  0  0  0  0
    3.2047   -1.4541   -0.7563 S   0  0  0  0  0  0  0  0  0  0  0  0
    3.1284    1.0644    0.8906 O   0  0  0  0  0  0  0  0  0  0  0  0
    4.4173    1.4928    0.4141 C   0  0  0  0  0  0  0  0  0  0  0  0
    4.3140    2.3878   -0.8042 C   0  0  0  0  0  0  0  0  0  0  0  0
    0.9282    1.1718   -1.0490 S   0  0  0  0  0  0  0  0  0  0  0  0
    0.2762   -0.1680   -2.0855 C   0  0  0  0  0  0  0  0  0  0  0  0
   -0.6239   -1.4447   -1.1581 S   0  0  0  0  0  0  0  0  0  0  0  0
   -2.2495   -0.2505   -0.5080 P   0  0  0  0  0  0  0  0  0  0  0  0
   -2.8659    1.1676   -1.7133 S   0  0  0  0  0  0  0  0  0  0  0  0
   -1.8876    0.2268    0.9664 O   0  0  0  0  0  0  0  0  0  0  0  0
   -1.5433    1.5685    1.3515 C   0  0  0  0  0  0  0  0  0  0  0  0
   -2.3612    1.9540    2.5686 C   0  0  0  0  0  0  0  0  0  0  0  0
   -3.2347   -1.4598   -0.2433 O   0  0  0  0  0  0  0  0  0  0  0  0
   -4.6700   -1.3040   -0.1910 C   0  0  0  0  0  0  0  0  0  0  0  0
   -5.1178   -0.4814    0.9995 C   0  0  0  0  0  0  0  0  0  0  0  0
    2.3600   -0.6005    3.6939 H   0  0  0  0  0  0  0  0  0  0  0  0
    2.5604   -2.3630    3.6989 H   0  0  0  0  0  0  0  0  0  0  0  0
    3.4724   -1.3705    2.5516 H   0  0  0  0  0  0  0  0  0  0  0  0
    0.4312   -1.7664    2.5546 H   0  0  0  0  0  0  0  0  0  0  0  0
    1.5906   -2.4610    1.3871 H   0  0  0  0  0  0  0  0  0  0  0  0
    4.8461    2.0237    1.2653 H   0  0  0  0  0  0  0  0  0  0  0  0
    5.0158    0.6044    0.1882 H   0  0  0  0  0  0  0  0  0  0  0  0
    5.3001    2.7709   -1.0485 H   0  0  0  0  0  0  0  0  0  0  0  0
    3.9342    1.8230   -1.6543 H   0  0  0  0  0  0  0  0  0  0  0  0
    3.6424    3.2198   -0.6090 H   0  0  0  0  0  0  0  0  0  0  0  0
    1.0996   -0.6807   -2.5814 H   0  0  0  0  0  0  0  0  0  0  0  0
   -0.3893    0.3041   -2.8075 H   0  0  0  0  0  0  0  0  0  0  0  0
   -0.4733    1.5742    1.5752 H   0  0  0  0  0  0  0  0  0  0  0  0
   -1.7376    2.2422    0.5094 H   0  0  0  0  0  0  0  0  0  0  0  0
   -2.0409    2.9317    2.9133 H   0  0  0  0  0  0  0  0  0  0  0  0
   -3.4183    1.9939    2.3202 H   0  0  0  0  0  0  0  0  0  0  0  0
   -2.2124    1.2263    3.3611 H   0  0  0  0  0  0  0  0  0  0  0  0
   -5.0022   -0.8418   -1.1257 H   0  0  0  0  0  0  0  0  0  0  0  0
   -5.0378   -2.3296   -0.1339 H   0  0  0  0  0  0  0  0  0  0  0  0
   -6.2014   -0.5068    1.0660 H   0  0  0  0  0  0  0  0  0  0  0  0
   -4.6903   -0.8805    1.9158 H   0  0  0  0  0  0  0  0  0  0  0  0
   -4.7967    0.5518    0.8761 H   0  0  0  0  0  0  0  0  0  0  0  0
  1  2  1  0  0  0  0
  2  3  1  0  0  0  0
  3  4  2  0  0  0  0
  4  5  2  0  0  0  0
  4  6  2  0  0  0  0
  6  7  1  0  0  0  0
  7  8  1  0  0  0  0
  4  9  1  0  0  0  0
  9 10  1  0  0  0  0
 10 11  1  0  0  0  0
 11 12  1  0  0  0  0
 12 13  2  0  0  0  0
 12 14  2  0  0  0  0
 14 15  1  0  0  0  0
 15 16  1  0  0  0  0
 12 17  2  0  0  0  0
 17 18  1  0  0  0  0
 18 19  1  0  0  0  0
  1 20  1  0  0  0  0
  1 21  1  0  0  0  0
  1 22  1  0  0  0  0
  2 23  1  0  0  0  0
  2 24  1  0  0  0  0
  7 25  1  0  0  0  0
  7 26  1  0  0  0  0
  8 27  1  0  0  0  0
  8 28  1  0  0  0  0
  8 29  1  0  0  0  0
 10 30  1  0  0  0  0
 10 31  1  0  0  0  0
 15 32  1  0  0  0  0
 15 33  1  0  0  0  0
 16 34  1  0  0  0  0
 16 35  1  0  0  0  0
 16 36  1  0  0  0  0
 18 37  1  0  0  0  0
 18 38  1  0  0  0  0
 19 39  1  0  0  0  0
 19 40  1  0  0  0  0
 19 41  1  0  0  0  0
M  END
