 xtb: 6.7.1 (edcfbbe)
          04092505213D

 41 40  0     0  0            999 V2000
    3.2580    1.2051   -2.4047 C   0  0  0  0  0  0  0  0  0  0  0  0
    2.6209   -0.1341   -2.0921 C   0  0  0  0  0  0  0  0  0  0  0  0
    2.8912   -0.5259   -0.7307 O   0  0  0  0  0  0  0  0  0  0  0  0
    1.9464   -0.1993    0.5010 P   0  0  0  0  0  0  0  0  0  0  0  0
    1.4993    1.6739    0.8335 S   0  0  0  0  0  0  0  0  0  0  0  0
    2.7446   -0.7804    1.7278 O   0  0  0  0  0  0  0  0  0  0  0  0
    3.3443   -2.1002    1.7586 C   0  0  0  0  0  0  0  0  0  0  0  0
    4.8068   -2.0337    1.3699 C   0  0  0  0  0  0  0  0  0  0  0  0
    0.3740   -1.6242    0.1929 S   0  0  0  0  0  0  0  0  0  0  0  0
   -0.6002   -1.3168    1.6825 C   0  0  0  0  0  0  0  0  0  0  0  0
   -1.4856    0.2816    1.7167 S   0  0  0  0  0  0  0  0  0  0  0  0
   -2.1416    0.4222   -0.2823 P   0  0  0  0  0  0  0  0  0  0  0  0
   -0.9631    0.8253   -1.8059 S   0  0  0  0  0  0  0  0  0  0  0  0
   -3.3208    1.4863   -0.1644 O   0  0  0  0  0  0  0  0  0  0  0  0
   -3.1110    2.8936   -0.3613 C   0  0  0  0  0  0  0  0  0  0  0  0
   -2.2594    3.4958    0.7380 C   0  0  0  0  0  0  0  0  0  0  0  0
   -2.9317   -0.9450   -0.3615 O   0  0  0  0  0  0  0  0  0  0  0  0
   -3.3700   -1.5249   -1.6138 C   0  0  0  0  0  0  0  0  0  0  0  0
   -2.4694   -2.6811   -1.9995 C   0  0  0  0  0  0  0  0  0  0  0  0
    4.3258    1.1710   -2.2068 H   0  0  0  0  0  0  0  0  0  0  0  0
    3.0890    1.4432   -3.4497 H   0  0  0  0  0  0  0  0  0  0  0  0
    2.8103    1.9836   -1.7904 H   0  0  0  0  0  0  0  0  0  0  0  0
    3.0544   -0.9336   -2.6958 H   0  0  0  0  0  0  0  0  0  0  0  0
    1.5415   -0.0949   -2.2587 H   0  0  0  0  0  0  0  0  0  0  0  0
    3.2249   -2.4281    2.7929 H   0  0  0  0  0  0  0  0  0  0  0  0
    2.7859   -2.7607    1.0899 H   0  0  0  0  0  0  0  0  0  0  0  0
    4.9086   -1.7035    0.3399 H   0  0  0  0  0  0  0  0  0  0  0  0
    5.3315   -1.3342    2.0148 H   0  0  0  0  0  0  0  0  0  0  0  0
    5.2474   -3.0202    1.4761 H   0  0  0  0  0  0  0  0  0  0  0  0
    0.0472   -1.3110    2.5579 H   0  0  0  0  0  0  0  0  0  0  0  0
   -1.3286   -2.1227    1.7349 H   0  0  0  0  0  0  0  0  0  0  0  0
   -2.6377    3.0415   -1.3379 H   0  0  0  0  0  0  0  0  0  0  0  0
   -4.1184    3.3117   -0.3681 H   0  0  0  0  0  0  0  0  0  0  0  0
   -2.6850    3.2712    1.7131 H   0  0  0  0  0  0  0  0  0  0  0  0
   -1.2480    3.0875    0.6980 H   0  0  0  0  0  0  0  0  0  0  0  0
   -2.2036    4.5715    0.6062 H   0  0  0  0  0  0  0  0  0  0  0  0
   -4.3927   -1.8546   -1.4251 H   0  0  0  0  0  0  0  0  0  0  0  0
   -3.3680   -0.7531   -2.3884 H   0  0  0  0  0  0  0  0  0  0  0  0
   -1.4580   -2.3227   -2.1781 H   0  0  0  0  0  0  0  0  0  0  0  0
   -2.4415   -3.4191   -1.2032 H   0  0  0  0  0  0  0  0  0  0  0  0
   -2.8492   -3.1410   -2.9060 H   0  0  0  0  0  0  0  0  0  0  0  0
  1  2  1  0  0  0  0
  2  3  1  0  0  0  0
  3  4  2  0  0  0  0
  4  5  2  0  0  0  0
  4  6  2  0  0  0  0
  6  7  1  0  0  0  0
  7  8  1  0  0  0  0
  4  9  1  0  0  0  0
  9 10  1  0  0  0  0
 10 11  1  0  0  0  0
 11 12  1  0  0  0  0
 12 13  2  0  0  0  0
 12 14  2  0  0  0  0
 14 15  1  0  0  0  0
 15 16  1  0  0  0  0
 12 17  2  0  0  0  0
 17 18  1  0  0  0  0
 18 19  1  0  0  0  0
  1 20  1  0  0  0  0
  1 21  1  0  0  0  0
  1 22  1  0  0  0  0
  2 23  1  0  0  0  0
  2 24  1  0  0  0  0
  7 25  1  0  0  0  0
  7 26  1  0  0  0  0
  8 27  1  0  0  0  0
  8 28  1  0  0  0  0
  8 29  1  0  0  0  0
 10 30  1  0  0  0  0
 10 31  1  0  0  0  0
 15 32  1  0  0  0  0
 15 33  1  0  0  0  0
 16 34  1  0  0  0  0
 16 35  1  0  0  0  0
 16 36  1  0  0  0  0
 18 37  1  0  0  0  0
 18 38  1  0  0  0  0
 19 39  1  0  0  0  0
 19 40  1  0  0  0  0
 19 41  1  0  0  0  0
M  END
