 xtb: 6.7.1 (edcfbbe)
          04092505213D

 41 40  0     0  0            999 V2000
    5.0269   -1.4734   -1.2869 C   0  0  0  0  0  0  0  0  0  0  0  0
    4.2500   -0.4161   -2.0430 C   0  0  0  0  0  0  0  0  0  0  0  0
    2.9289   -0.2219   -1.4980 O   0  0  0  0  0  0  0  0  0  0  0  0
    2.6992    0.4095   -0.0581 P   0  0  0  0  0  0  0  0  0  0  0  0
    3.9748    1.7806    0.5126 S   0  0  0  0  0  0  0  0  0  0  0  0
    2.6602   -0.9025    0.8503 O   0  0  0  0  0  0  0  0  0  0  0  0
    2.8197   -0.8480    2.2765 C   0  0  0  0  0  0  0  0  0  0  0  0
    1.6199   -0.2187    2.9543 C   0  0  0  0  0  0  0  0  0  0  0  0
    0.6922    1.0073   -0.3108 S   0  0  0  0  0  0  0  0  0  0  0  0
   -0.0398   -0.6334   -0.6649 C   0  0  0  0  0  0  0  0  0  0  0  0
   -1.2593   -1.1318    0.5724 S   0  0  0  0  0  0  0  0  0  0  0  0
   -2.9446   -0.0700   -0.1893 P   0  0  0  0  0  0  0  0  0  0  0  0
   -2.7912    0.5004   -2.0663 S   0  0  0  0  0  0  0  0  0  0  0  0
   -3.2901    1.0692    0.8543 O   0  0  0  0  0  0  0  0  0  0  0  0
   -2.4979    2.2612    1.0141 C   0  0  0  0  0  0  0  0  0  0  0  0
   -1.6798    2.1853    2.2883 C   0  0  0  0  0  0  0  0  0  0  0  0
   -4.1868   -0.9763    0.1673 O   0  0  0  0  0  0  0  0  0  0  0  0
   -4.6842   -1.9824   -0.7340 C   0  0  0  0  0  0  0  0  0  0  0  0
   -3.7240   -3.1458   -0.8837 C   0  0  0  0  0  0  0  0  0  0  0  0
    5.9692   -1.6564   -1.7938 H   0  0  0  0  0  0  0  0  0  0  0  0
    5.2322   -1.1280   -0.2745 H   0  0  0  0  0  0  0  0  0  0  0  0
    4.4577   -2.3979   -1.2366 H   0  0  0  0  0  0  0  0  0  0  0  0
    4.0634   -0.7092   -3.0770 H   0  0  0  0  0  0  0  0  0  0  0  0
    4.7780    0.5423   -2.0173 H   0  0  0  0  0  0  0  0  0  0  0  0
    2.9478   -1.8911    2.5683 H   0  0  0  0  0  0  0  0  0  0  0  0
    3.7284   -0.2801    2.5011 H   0  0  0  0  0  0  0  0  0  0  0  0
    1.7475   -0.2656    4.0309 H   0  0  0  0  0  0  0  0  0  0  0  0
    1.5370    0.8264    2.6554 H   0  0  0  0  0  0  0  0  0  0  0  0
    0.7090   -0.7457    2.6770 H   0  0  0  0  0  0  0  0  0  0  0  0
    0.7480   -1.3803   -0.6661 H   0  0  0  0  0  0  0  0  0  0  0  0
   -0.5313   -0.5613   -1.6359 H   0  0  0  0  0  0  0  0  0  0  0  0
   -1.8548    2.3984    0.1374 H   0  0  0  0  0  0  0  0  0  0  0  0
   -3.2211    3.0781    1.0582 H   0  0  0  0  0  0  0  0  0  0  0  0
   -1.1487    3.1218    2.4247 H   0  0  0  0  0  0  0  0  0  0  0  0
   -2.3334    2.0111    3.1378 H   0  0  0  0  0  0  0  0  0  0  0  0
   -0.9566    1.3766    2.2281 H   0  0  0  0  0  0  0  0  0  0  0  0
   -5.6256   -2.2943   -0.2796 H   0  0  0  0  0  0  0  0  0  0  0  0
   -4.8786   -1.5153   -1.7049 H   0  0  0  0  0  0  0  0  0  0  0  0
   -2.8273   -2.8250   -1.4119 H   0  0  0  0  0  0  0  0  0  0  0  0
   -3.4406   -3.5285    0.0934 H   0  0  0  0  0  0  0  0  0  0  0  0
   -4.2041   -3.9341   -1.4549 H   0  0  0  0  0  0  0  0  0  0  0  0
  1  2  1  0  0  0  0
  2  3  1  0  0  0  0
  3  4  2  0  0  0  0
  4  5  2  0  0  0  0
  4  6  2  0  0  0  0
  6  7  1  0  0  0  0
  7  8  1  0  0  0  0
  4  9  1  0  0  0  0
  9 10  1  0  0  0  0
 10 11  1  0  0  0  0
 11 12  1  0  0  0  0
 12 13  2  0  0  0  0
 12 14  2  0  0  0  0
 14 15  1  0  0  0  0
 15 16  1  0  0  0  0
 12 17  2  0  0  0  0
 17 18  1  0  0  0  0
 18 19  1  0  0  0  0
  1 20  1  0  0  0  0
  1 21  1  0  0  0  0
  1 22  1  0  0  0  0
  2 23  1  0  0  0  0
  2 24  1  0  0  0  0
  7 25  1  0  0  0  0
  7 26  1  0  0  0  0
  8 27  1  0  0  0  0
  8 28  1  0  0  0  0
  8 29  1  0  0  0  0
 10 30  1  0  0  0  0
 10 31  1  0  0  0  0
 15 32  1  0  0  0  0
 15 33  1  0  0  0  0
 16 34  1  0  0  0  0
 16 35  1  0  0  0  0
 16 36  1  0  0  0  0
 18 37  1  0  0  0  0
 18 38  1  0  0  0  0
 19 39  1  0  0  0  0
 19 40  1  0  0  0  0
 19 41  1  0  0  0  0
M  END
