 xtb: 6.7.1 (edcfbbe)
          04092505213D

 41 40  0     0  0            999 V2000
    4.2107    1.2357   -2.2252 C   0  0  0  0  0  0  0  0  0  0  0  0
    4.6846    0.3749   -1.0734 C   0  0  0  0  0  0  0  0  0  0  0  0
    3.7595    0.3443    0.0307 O   0  0  0  0  0  0  0  0  0  0  0  0
    2.1909    0.0961   -0.0669 P   0  0  0  0  0  0  0  0  0  0  0  0
    1.1205    1.6456   -0.6359 S   0  0  0  0  0  0  0  0  0  0  0  0
    1.8799   -0.3969    1.4061 O   0  0  0  0  0  0  0  0  0  0  0  0
    1.7546    0.5147    2.5185 C   0  0  0  0  0  0  0  0  0  0  0  0
    0.9987   -0.1992    3.6198 C   0  0  0  0  0  0  0  0  0  0  0  0
    2.0279   -1.7004   -1.1402 S   0  0  0  0  0  0  0  0  0  0  0  0
    0.2423   -1.7106   -1.4311 C   0  0  0  0  0  0  0  0  0  0  0  0
   -0.7268   -1.9220    0.0958 S   0  0  0  0  0  0  0  0  0  0  0  0
   -1.9248   -0.1834    0.0420 P   0  0  0  0  0  0  0  0  0  0  0  0
   -2.1441    0.5938   -1.7509 S   0  0  0  0  0  0  0  0  0  0  0  0
   -1.2984    0.6599    1.2256 O   0  0  0  0  0  0  0  0  0  0  0  0
   -1.9980    1.7145    1.9246 C   0  0  0  0  0  0  0  0  0  0  0  0
   -2.3196    2.8845    1.0188 C   0  0  0  0  0  0  0  0  0  0  0  0
   -3.2827   -0.6594    0.7237 O   0  0  0  0  0  0  0  0  0  0  0  0
   -4.3140   -1.3411   -0.0178 C   0  0  0  0  0  0  0  0  0  0  0  0
   -5.4327   -0.3803   -0.3706 C   0  0  0  0  0  0  0  0  0  0  0  0
    3.3046    0.8158   -2.6609 H   0  0  0  0  0  0  0  0  0  0  0  0
    3.9908    2.2444   -1.8828 H   0  0  0  0  0  0  0  0  0  0  0  0
    4.9830    1.2745   -2.9866 H   0  0  0  0  0  0  0  0  0  0  0  0
    5.5998    0.7712   -0.6297 H   0  0  0  0  0  0  0  0  0  0  0  0
    4.8460   -0.6555   -1.4013 H   0  0  0  0  0  0  0  0  0  0  0  0
    2.7618    0.7950    2.8362 H   0  0  0  0  0  0  0  0  0  0  0  0
    1.2253    1.4098    2.1736 H   0  0  0  0  0  0  0  0  0  0  0  0
    1.5292   -1.1034    3.9036 H   0  0  0  0  0  0  0  0  0  0  0  0
    0.9146    0.4567    4.4803 H   0  0  0  0  0  0  0  0  0  0  0  0
    0.0056   -0.4723    3.2723 H   0  0  0  0  0  0  0  0  0  0  0  0
    0.0559   -2.5659   -2.0758 H   0  0  0  0  0  0  0  0  0  0  0  0
   -0.0697   -0.7790   -1.9141 H   0  0  0  0  0  0  0  0  0  0  0  0
   -2.9044    1.2923    2.3638 H   0  0  0  0  0  0  0  0  0  0  0  0
   -1.3005    2.0027    2.7134 H   0  0  0  0  0  0  0  0  0  0  0  0
   -3.0476    2.5902    0.2644 H   0  0  0  0  0  0  0  0  0  0  0  0
   -2.7266    3.6998    1.6083 H   0  0  0  0  0  0  0  0  0  0  0  0
   -1.4182    3.2207    0.5089 H   0  0  0  0  0  0  0  0  0  0  0  0
   -3.8810   -1.7789   -0.9211 H   0  0  0  0  0  0  0  0  0  0  0  0
   -4.6603   -2.1354    0.6455 H   0  0  0  0  0  0  0  0  0  0  0  0
   -6.2282   -0.9255   -0.8679 H   0  0  0  0  0  0  0  0  0  0  0  0
   -5.8241    0.0878    0.5282 H   0  0  0  0  0  0  0  0  0  0  0  0
   -5.0615    0.3923   -1.0406 H   0  0  0  0  0  0  0  0  0  0  0  0
  1  2  1  0  0  0  0
  2  3  1  0  0  0  0
  3  4  2  0  0  0  0
  4  5  2  0  0  0  0
  4  6  2  0  0  0  0
  6  7  1  0  0  0  0
  7  8  1  0  0  0  0
  4  9  1  0  0  0  0
  9 10  1  0  0  0  0
 10 11  1  0  0  0  0
 11 12  1  0  0  0  0
 12 13  2  0  0  0  0
 12 14  2  0  0  0  0
 14 15  1  0  0  0  0
 15 16  1  0  0  0  0
 12 17  2  0  0  0  0
 17 18  1  0  0  0  0
 18 19  1  0  0  0  0
  1 20  1  0  0  0  0
  1 21  1  0  0  0  0
  1 22  1  0  0  0  0
  2 23  1  0  0  0  0
  2 24  1  0  0  0  0
  7 25  1  0  0  0  0
  7 26  1  0  0  0  0
  8 27  1  0  0  0  0
  8 28  1  0  0  0  0
  8 29  1  0  0  0  0
 10 30  1  0  0  0  0
 10 31  1  0  0  0  0
 15 32  1  0  0  0  0
 15 33  1  0  0  0  0
 16 34  1  0  0  0  0
 16 35  1  0  0  0  0
 16 36  1  0  0  0  0
 18 37  1  0  0  0  0
 18 38  1  0  0  0  0
 19 39  1  0  0  0  0
 19 40  1  0  0  0  0
 19 41  1  0  0  0  0
M  END
