  16
 
 C          2.5097999382       -0.3562785358        0.0030017029
 C          1.2616706104        0.5185413992        0.0027569887
 C         -0.0170051124       -0.3156894989        0.0036419624
 C         -1.2757273577        0.5612726229        0.0031448300
 N         -2.5331733606       -0.1718936831        0.0016547609
 H          3.4067624085        0.2582194576        0.0016573655
 H          2.5297567595       -0.9916688174        0.8858328150
 H          2.5285641983       -0.9939672915       -0.8781855082
 H          1.2688541084        1.1642655031        0.8835980440
 H          1.2684491534        1.1627256873       -0.8792262074
 H         -0.0285467353       -0.9610904856       -0.8794466622
 H         -0.0279636173       -0.9603044614        0.8872777275
 H         -1.2705345235        1.2054066835       -0.8805016991
 H         -1.2723418709        1.2048133702        0.8873150606
 H         -2.5768398208       -0.7726629392        0.8185049731
 H         -2.5733834352       -0.7751501239       -0.8134029387
          16
        -17.08751539
 C          2.5517633126       -0.3229315993       -0.0002228646
 C          1.2826984536        0.5216401620        0.0006511167
 C          0.0247166162       -0.3426769206       -0.0000419578
 C         -1.2555311390        0.5037468208       -0.0007216409
 N         -2.4944262874       -0.2599874737        0.0002784345
 H          2.5860028073       -0.9602926548        0.8804383359
 H          2.5869693116       -0.9570023400       -0.8832331621
 H          3.4332036442        0.3132023950        0.0014632721
 H          1.2744305493        1.1658314843        0.8826054139
 H          1.2743157165        1.1673293764       -0.8802406027
 H          0.0289310647       -0.9877082173       -0.8835542946
 H          0.0278395293       -0.9879098577        0.8832504977
 H         -1.2663321347        1.1466065929       -0.8855845865
 H         -1.2659340008        1.1492075011        0.8821418387
 H         -2.5215228223       -0.8602633993        0.8180087948
 H         -2.5203665681       -0.8634056526       -0.8151686108
