 xtb: 6.7.1 (edcfbbe)
          04092505213D

 41 40  0     0  0            999 V2000
    3.8406   -0.4385   -2.9183 C   0  0  0  0  0  0  0  0  0  0  0  0
    4.5584   -0.9645   -1.6910 C   0  0  0  0  0  0  0  0  0  0  0  0
    3.6457   -1.5195   -0.7291 O   0  0  0  0  0  0  0  0  0  0  0  0
    2.6683   -0.6093    0.1150 P   0  0  0  0  0  0  0  0  0  0  0  0
    3.3908    1.1562    0.5950 S   0  0  0  0  0  0  0  0  0  0  0  0
    2.4439   -1.6655    1.2722 O   0  0  0  0  0  0  0  0  0  0  0  0
    1.3605   -1.6306    2.2174 C   0  0  0  0  0  0  0  0  0  0  0  0
    1.4870   -0.4888    3.2067 C   0  0  0  0  0  0  0  0  0  0  0  0
    0.8367   -0.5790   -0.9926 S   0  0  0  0  0  0  0  0  0  0  0  0
    0.2613    1.0799   -0.5425 C   0  0  0  0  0  0  0  0  0  0  0  0
   -0.9075    1.0675    0.8338 S   0  0  0  0  0  0  0  0  0  0  0  0
   -2.6113    0.5053   -0.3233 P   0  0  0  0  0  0  0  0  0  0  0  0
   -2.7110    1.2866   -2.1143 S   0  0  0  0  0  0  0  0  0  0  0  0
   -3.8170    0.7345    0.6863 O   0  0  0  0  0  0  0  0  0  0  0  0
   -4.0625    1.9417    1.4329 C   0  0  0  0  0  0  0  0  0  0  0  0
   -4.1425    3.1699    0.5511 C   0  0  0  0  0  0  0  0  0  0  0  0
   -2.6011   -1.0654   -0.4432 O   0  0  0  0  0  0  0  0  0  0  0  0
   -2.5729   -1.9553    0.7016 C   0  0  0  0  0  0  0  0  0  0  0  0
   -1.8313   -3.2137    0.2986 C   0  0  0  0  0  0  0  0  0  0  0  0
    4.5714   -0.1506   -3.6673 H   0  0  0  0  0  0  0  0  0  0  0  0
    3.1850   -1.2025   -3.3290 H   0  0  0  0  0  0  0  0  0  0  0  0
    3.2434    0.4344   -2.6571 H   0  0  0  0  0  0  0  0  0  0  0  0
    5.1333   -0.1661   -1.2100 H   0  0  0  0  0  0  0  0  0  0  0  0
    5.2179   -1.7975   -1.9377 H   0  0  0  0  0  0  0  0  0  0  0  0
    0.4156   -1.5640    1.6698 H   0  0  0  0  0  0  0  0  0  0  0  0
    1.4262   -2.5987    2.7170 H   0  0  0  0  0  0  0  0  0  0  0  0
    2.4649   -0.5097    3.6806 H   0  0  0  0  0  0  0  0  0  0  0  0
    1.3641    0.4692    2.7039 H   0  0  0  0  0  0  0  0  0  0  0  0
    0.7172   -0.5850    3.9655 H   0  0  0  0  0  0  0  0  0  0  0  0
   -0.2370    1.5021   -1.4168 H   0  0  0  0  0  0  0  0  0  0  0  0
    1.1199    1.6835   -0.2383 H   0  0  0  0  0  0  0  0  0  0  0  0
   -5.0135    1.7450    1.9308 H   0  0  0  0  0  0  0  0  0  0  0  0
   -3.2678    2.0500    2.1761 H   0  0  0  0  0  0  0  0  0  0  0  0
   -3.1796    3.3576    0.0779 H   0  0  0  0  0  0  0  0  0  0  0  0
   -4.8853    3.0287   -0.2305 H   0  0  0  0  0  0  0  0  0  0  0  0
   -4.4136    4.0306    1.1540 H   0  0  0  0  0  0  0  0  0  0  0  0
   -2.0818   -1.4435    1.5352 H   0  0  0  0  0  0  0  0  0  0  0  0
   -3.6082   -2.1689    0.9728 H   0  0  0  0  0  0  0  0  0  0  0  0
   -1.7962   -3.8948    1.1427 H   0  0  0  0  0  0  0  0  0  0  0  0
   -2.3410   -3.6934   -0.5318 H   0  0  0  0  0  0  0  0  0  0  0  0
   -0.8183   -2.9738   -0.0163 H   0  0  0  0  0  0  0  0  0  0  0  0
  1  2  1  0  0  0  0
  2  3  1  0  0  0  0
  3  4  2  0  0  0  0
  4  5  2  0  0  0  0
  4  6  2  0  0  0  0
  6  7  1  0  0  0  0
  7  8  1  0  0  0  0
  4  9  1  0  0  0  0
  9 10  1  0  0  0  0
 10 11  1  0  0  0  0
 11 12  1  0  0  0  0
 12 13  2  0  0  0  0
 12 14  2  0  0  0  0
 14 15  1  0  0  0  0
 15 16  1  0  0  0  0
 12 17  2  0  0  0  0
 17 18  1  0  0  0  0
 18 19  1  0  0  0  0
  1 20  1  0  0  0  0
  1 21  1  0  0  0  0
  1 22  1  0  0  0  0
  2 23  1  0  0  0  0
  2 24  1  0  0  0  0
  7 25  1  0  0  0  0
  7 26  1  0  0  0  0
  8 27  1  0  0  0  0
  8 28  1  0  0  0  0
  8 29  1  0  0  0  0
 10 30  1  0  0  0  0
 10 31  1  0  0  0  0
 15 32  1  0  0  0  0
 15 33  1  0  0  0  0
 16 34  1  0  0  0  0
 16 35  1  0  0  0  0
 16 36  1  0  0  0  0
 18 37  1  0  0  0  0
 18 38  1  0  0  0  0
 19 39  1  0  0  0  0
 19 40  1  0  0  0  0
 19 41  1  0  0  0  0
M  END
