 xtb: 6.7.1 (edcfbbe)
          04092513593D

 41 40  0     0  0            999 V2000
    1.6046    2.4894    1.1867 C   0  0  0  0  0  0  0  0  0  0  0  0
    2.8953    1.7876    1.5581 C   0  0  0  0  0  0  0  0  0  0  0  0
    3.2909    0.8256    0.5673 O   0  0  0  0  0  0  0  0  0  0  0  0
    2.5534   -0.5709    0.3801 P   0  0  0  0  0  0  0  0  0  0  0  0
    1.9869   -1.4504    2.0426 S   0  0  0  0  0  0  0  0  0  0  0  0
    3.6058   -1.3797   -0.4870 O   0  0  0  0  0  0  0  0  0  0  0  0
    4.6631   -2.1607    0.1136 C   0  0  0  0  0  0  0  0  0  0  0  0
    5.7171   -1.2960    0.7747 C   0  0  0  0  0  0  0  0  0  0  0  0
    1.1046   -0.1902   -1.1162 S   0  0  0  0  0  0  0  0  0  0  0  0
   -0.1165   -1.4722   -0.6948 C   0  0  0  0  0  0  0  0  0  0  0  0
   -1.2730   -0.9931    0.6218 S   0  0  0  0  0  0  0  0  0  0  0  0
   -2.4231    0.3764   -0.5038 P   0  0  0  0  0  0  0  0  0  0  0  0
   -2.7643   -0.0672   -2.3863 S   0  0  0  0  0  0  0  0  0  0  0  0
   -1.5930    1.6998   -0.2393 O   0  0  0  0  0  0  0  0  0  0  0  0
   -1.6549    2.8455   -1.1140 C   0  0  0  0  0  0  0  0  0  0  0  0
   -2.9882    3.5593   -1.0295 C   0  0  0  0  0  0  0  0  0  0  0  0
   -3.7185    0.6223    0.3841 O   0  0  0  0  0  0  0  0  0  0  0  0
   -4.9462   -0.1092    0.2179 C   0  0  0  0  0  0  0  0  0  0  0  0
   -4.8408   -1.5374    0.7135 C   0  0  0  0  0  0  0  0  0  0  0  0
    0.7701    1.7887    1.2091 H   0  0  0  0  0  0  0  0  0  0  0  0
    1.4116    3.2855    1.8988 H   0  0  0  0  0  0  0  0  0  0  0  0
    1.6824    2.9079    0.1860 H   0  0  0  0  0  0  0  0  0  0  0  0
    2.7938    1.2742    2.5200 H   0  0  0  0  0  0  0  0  0  0  0  0
    3.7326    2.4864    1.5953 H   0  0  0  0  0  0  0  0  0  0  0  0
    4.2161   -2.8446    0.8422 H   0  0  0  0  0  0  0  0  0  0  0  0
    5.0756   -2.7261   -0.7232 H   0  0  0  0  0  0  0  0  0  0  0  0
    6.0942   -0.5566    0.0733 H   0  0  0  0  0  0  0  0  0  0  0  0
    5.2939   -0.7821    1.6362 H   0  0  0  0  0  0  0  0  0  0  0  0
    6.5358   -1.9261    1.1095 H   0  0  0  0  0  0  0  0  0  0  0  0
    0.3930   -2.3663   -0.3441 H   0  0  0  0  0  0  0  0  0  0  0  0
   -0.6786   -1.6664   -1.6083 H   0  0  0  0  0  0  0  0  0  0  0  0
   -0.8372    3.4798   -0.7695 H   0  0  0  0  0  0  0  0  0  0  0  0
   -1.4584    2.5091   -2.1370 H   0  0  0  0  0  0  0  0  0  0  0  0
   -3.2132    3.8184    0.0016 H   0  0  0  0  0  0  0  0  0  0  0  0
   -2.9466    4.4638   -1.6288 H   0  0  0  0  0  0  0  0  0  0  0  0
   -3.7804    2.9180   -1.4135 H   0  0  0  0  0  0  0  0  0  0  0  0
   -5.6710    0.4622    0.8000 H   0  0  0  0  0  0  0  0  0  0  0  0
   -5.2208   -0.0899   -0.8418 H   0  0  0  0  0  0  0  0  0  0  0  0
   -4.4738   -1.5581    1.7364 H   0  0  0  0  0  0  0  0  0  0  0  0
   -5.8218   -2.0012    0.6739 H   0  0  0  0  0  0  0  0  0  0  0  0
   -4.1561   -2.1044    0.0846 H   0  0  0  0  0  0  0  0  0  0  0  0
  1  2  1  0  0  0  0
  2  3  1  0  0  0  0
  3  4  2  0  0  0  0
  4  5  2  0  0  0  0
  4  6  2  0  0  0  0
  6  7  1  0  0  0  0
  7  8  1  0  0  0  0
  4  9  1  0  0  0  0
  9 10  1  0  0  0  0
 10 11  1  0  0  0  0
 11 12  1  0  0  0  0
 12 13  2  0  0  0  0
 12 14  2  0  0  0  0
 14 15  1  0  0  0  0
 15 16  1  0  0  0  0
 12 17  2  0  0  0  0
 17 18  1  0  0  0  0
 18 19  1  0  0  0  0
  1 20  1  0  0  0  0
  1 21  1  0  0  0  0
  1 22  1  0  0  0  0
  2 23  1  0  0  0  0
  2 24  1  0  0  0  0
  7 25  1  0  0  0  0
  7 26  1  0  0  0  0
  8 27  1  0  0  0  0
  8 28  1  0  0  0  0
  8 29  1  0  0  0  0
 10 30  1  0  0  0  0
 10 31  1  0  0  0  0
 15 32  1  0  0  0  0
 15 33  1  0  0  0  0
 16 34  1  0  0  0  0
 16 35  1  0  0  0  0
 16 36  1  0  0  0  0
 18 37  1  0  0  0  0
 18 38  1  0  0  0  0
 19 39  1  0  0  0  0
 19 40  1  0  0  0  0
 19 41  1  0  0  0  0
M  END
