 xtb: 6.7.1 (edcfbbe)
          04032520183D

 21 21  0     0  0            999 V2000
   -3.0633   -0.3866    0.0105 C   0  0  0  0  0  0  0  0  0  0  0  0
   -1.6022   -0.0508   -0.0073 C   0  0  0  0  0  0  0  0  0  0  0  0
   -1.1759    1.2710   -0.0052 C   0  0  0  0  0  0  0  0  0  0  0  0
    0.1730    1.5684   -0.0013 C   0  0  0  0  0  0  0  0  0  0  0  0
    1.1402    0.5699    0.0007 C   0  0  0  0  0  0  0  0  0  0  0  0
    0.7229   -0.7620   -0.0020 C   0  0  0  0  0  0  0  0  0  0  0  0
   -0.6379   -1.0461   -0.0057 C   0  0  0  0  0  0  0  0  0  0  0  0
    1.6848   -1.9156   -0.0002 C   0  0  0  0  0  0  0  0  0  0  0  0
    2.5932    0.9480    0.0045 C   0  0  0  0  0  0  0  0  0  0  0  0
   -3.6268    0.3167   -0.5984 H   0  0  0  0  0  0  0  0  0  0  0  0
   -3.2343   -1.3938   -0.3607 H   0  0  0  0  0  0  0  0  0  0  0  0
   -3.4454   -0.3295    1.0298 H   0  0  0  0  0  0  0  0  0  0  0  0
   -1.9036    2.0700   -0.0076 H   0  0  0  0  0  0  0  0  0  0  0  0
    0.4855    2.6035   -0.0011 H   0  0  0  0  0  0  0  0  0  0  0  0
   -0.9496   -2.0820   -0.0083 H   0  0  0  0  0  0  0  0  0  0  0  0
    1.5000   -2.5532   -0.8635 H   0  0  0  0  0  0  0  0  0  0  0  0
    2.7177   -1.5880   -0.0277 H   0  0  0  0  0  0  0  0  0  0  0  0
    1.5367   -2.5189    0.8945 H   0  0  0  0  0  0  0  0  0  0  0  0
    3.0935    0.5510    0.8865 H   0  0  0  0  0  0  0  0  0  0  0  0
    3.0966    0.5580   -0.8790 H   0  0  0  0  0  0  0  0  0  0  0  0
    2.7000    2.0297    0.0086 H   0  0  0  0  0  0  0  0  0  0  0  0
  1  2  1  0  0  0  0
  2  3  4  0  0  0  0
  3  4  4  0  0  0  0
  4  5  4  0  0  0  0
  5  6  4  0  0  0  0
  2  7  4  0  0  0  0
  6  7  4  0  0  0  0
  6  8  1  0  0  0  0
  5  9  1  0  0  0  0
  1 10  1  0  0  0  0
  1 11  1  0  0  0  0
  1 12  1  0  0  0  0
  3 13  1  0  0  0  0
  4 14  1  0  0  0  0
  7 15  1  0  0  0  0
  8 16  1  0  0  0  0
  8 17  1  0  0  0  0
  8 18  1  0  0  0  0
  9 19  1  0  0  0  0
  9 20  1  0  0  0  0
  9 21  1  0  0  0  0
M  END
