 xtb: 6.7.1 (edcfbbe)
          04092505203D

 41 40  0     0  0            999 V2000
    5.7777   -0.3522   -0.4347 C   0  0  0  0  0  0  0  0  0  0  0  0
    4.3287   -0.7368   -0.6549 C   0  0  0  0  0  0  0  0  0  0  0  0
    3.5058    0.3570   -0.2082 O   0  0  0  0  0  0  0  0  0  0  0  0
    1.9789    0.4728   -0.6446 P   0  0  0  0  0  0  0  0  0  0  0  0
    1.7178    0.3410   -2.5801 S   0  0  0  0  0  0  0  0  0  0  0  0
    1.5963    1.8775   -0.0549 O   0  0  0  0  0  0  0  0  0  0  0  0
    1.3008    2.1958    1.3266 C   0  0  0  0  0  0  0  0  0  0  0  0
    2.3684    1.7194    2.2866 C   0  0  0  0  0  0  0  0  0  0  0  0
    1.0642   -1.0563    0.5174 S   0  0  0  0  0  0  0  0  0  0  0  0
   -0.0427   -1.8220   -0.7082 C   0  0  0  0  0  0  0  0  0  0  0  0
   -1.7331   -2.0050   -0.1003 S   0  0  0  0  0  0  0  0  0  0  0  0
   -2.1607    0.0534    0.2207 P   0  0  0  0  0  0  0  0  0  0  0  0
   -1.4375    1.3240   -1.0855 S   0  0  0  0  0  0  0  0  0  0  0  0
   -1.6628    0.3690    1.6834 O   0  0  0  0  0  0  0  0  0  0  0  0
   -2.1004   -0.3936    2.8438 C   0  0  0  0  0  0  0  0  0  0  0  0
   -0.8883   -0.7593    3.6752 C   0  0  0  0  0  0  0  0  0  0  0  0
   -3.7389    0.0775    0.4115 O   0  0  0  0  0  0  0  0  0  0  0  0
   -4.6652    0.2070   -0.6815 C   0  0  0  0  0  0  0  0  0  0  0  0
   -4.6099   -0.9720   -1.6310 C   0  0  0  0  0  0  0  0  0  0  0  0
    6.0160    0.5410   -1.0054 H   0  0  0  0  0  0  0  0  0  0  0  0
    5.9542   -0.1552    0.6186 H   0  0  0  0  0  0  0  0  0  0  0  0
    6.4154   -1.1669   -0.7613 H   0  0  0  0  0  0  0  0  0  0  0  0
    4.0589   -1.6242   -0.0754 H   0  0  0  0  0  0  0  0  0  0  0  0
    4.1184   -0.9216   -1.7141 H   0  0  0  0  0  0  0  0  0  0  0  0
    1.2212    3.2842    1.3136 H   0  0  0  0  0  0  0  0  0  0  0  0
    0.3246    1.7648    1.5685 H   0  0  0  0  0  0  0  0  0  0  0  0
    3.3398    2.1021    1.9847 H   0  0  0  0  0  0  0  0  0  0  0  0
    2.1321    2.0807    3.2829 H   0  0  0  0  0  0  0  0  0  0  0  0
    2.4058    0.6312    2.3030 H   0  0  0  0  0  0  0  0  0  0  0  0
    0.3114   -2.8286   -0.9157 H   0  0  0  0  0  0  0  0  0  0  0  0
   -0.0263   -1.2051   -1.6115 H   0  0  0  0  0  0  0  0  0  0  0  0
   -2.7873    0.2537    3.3908 H   0  0  0  0  0  0  0  0  0  0  0  0
   -2.6330   -1.2843    2.5012 H   0  0  0  0  0  0  0  0  0  0  0  0
   -0.2133   -1.3902    3.1018 H   0  0  0  0  0  0  0  0  0  0  0  0
   -0.3562    0.1381    3.9770 H   0  0  0  0  0  0  0  0  0  0  0  0
   -1.2168   -1.2963    4.5590 H   0  0  0  0  0  0  0  0  0  0  0  0
   -5.6352    0.2822   -0.1881 H   0  0  0  0  0  0  0  0  0  0  0  0
   -4.4433    1.1384   -1.2113 H   0  0  0  0  0  0  0  0  0  0  0  0
   -3.6604   -0.9766   -2.1648 H   0  0  0  0  0  0  0  0  0  0  0  0
   -4.7113   -1.9059   -1.0838 H   0  0  0  0  0  0  0  0  0  0  0  0
   -5.4153   -0.8871   -2.3536 H   0  0  0  0  0  0  0  0  0  0  0  0
  1  2  1  0  0  0  0
  2  3  1  0  0  0  0
  3  4  2  0  0  0  0
  4  5  2  0  0  0  0
  4  6  2  0  0  0  0
  6  7  1  0  0  0  0
  7  8  1  0  0  0  0
  4  9  1  0  0  0  0
  9 10  1  0  0  0  0
 10 11  1  0  0  0  0
 11 12  1  0  0  0  0
 12 13  2  0  0  0  0
 12 14  2  0  0  0  0
 14 15  1  0  0  0  0
 15 16  1  0  0  0  0
 12 17  2  0  0  0  0
 17 18  1  0  0  0  0
 18 19  1  0  0  0  0
  1 20  1  0  0  0  0
  1 21  1  0  0  0  0
  1 22  1  0  0  0  0
  2 23  1  0  0  0  0
  2 24  1  0  0  0  0
  7 25  1  0  0  0  0
  7 26  1  0  0  0  0
  8 27  1  0  0  0  0
  8 28  1  0  0  0  0
  8 29  1  0  0  0  0
 10 30  1  0  0  0  0
 10 31  1  0  0  0  0
 15 32  1  0  0  0  0
 15 33  1  0  0  0  0
 16 34  1  0  0  0  0
 16 35  1  0  0  0  0
 16 36  1  0  0  0  0
 18 37  1  0  0  0  0
 18 38  1  0  0  0  0
 19 39  1  0  0  0  0
 19 40  1  0  0  0  0
 19 41  1  0  0  0  0
M  END
