41
 xtb: 6.7.1 (edcfbbe)
C            1.16601967304994        0.48515358338151        3.61368951490141
C            2.15693322102654        1.05026613107324        2.62949921790350
O            1.65932037066157        0.82481988322395        1.25737264378131
P            2.45176620273189       -0.16222354051165        0.27070284183726
S            2.88662511074968       -1.93602034280104        0.95109030321094
O            3.68863405533456        0.77159228496772       -0.16821964743482
C            4.95813950038555        0.23593584781541       -0.68144070516709
C            4.85725495379149       -0.16933603668664       -2.13050695746843
S            1.21815484886080       -0.08845244969737       -1.44880611628971
C            0.06873494329431       -1.47784285932881       -1.11024970829391
S           -1.15740147900623       -1.23762145888998        0.23190173228356
P           -2.41370359268759        0.24553316723929       -0.64005132678761
S           -2.65825243882751        0.10425971341111       -2.56478891360379
O           -1.82654848714953        1.69141137888433       -0.26995772339607
C           -1.58717941084035        2.10440584134749        1.12566489934369
C           -2.60061180724932        3.14829173056384        1.52110520026624
O           -3.68940062742774        0.18492232862032        0.33644364342642
C           -4.45337110973377       -1.02403327945676        0.68474228175407
C           -5.19786810649798       -1.61334732564655       -0.48626402536298
H            1.07185126861506       -0.59810535387793        3.49521915877527
H            1.51402774463938        0.69475392189803        4.63041685091234
H            0.18202121941929        0.94540437569038        3.48379694919084
H            3.14610797950250        0.59525442127845        2.74088552176115
H            2.25570753245893        2.13464599452357        2.72086450374277
H            5.65625431322073        1.06389285333083       -0.54293646928829
H            5.26131494816215       -0.59842738190651       -0.04214099045768
H            5.85596169645304       -0.44710590300607       -2.48318846203390
H            4.19761791933433       -1.03139663966839       -2.26383666539981
H            4.49315998171348        0.65881342729859       -2.74557995693754
H            0.64472708716607       -2.36464441701451       -0.82874962703383
H           -0.45476809155169       -1.66307151361907       -2.05271453280405
H           -1.62521315446878        1.22881758541791        1.78050864435782
H           -0.57007653522661        2.50270184179926        1.13013972106234
H           -3.61444578664125        2.73928672045598        1.51287305864711
H           -2.37402880248381        3.49360106226858        2.53520720758149
H           -2.55565029876965        4.00897386035454        0.84777233145454
H           -3.76949608982852       -1.74706945475996        1.13903512554143
H           -5.13999909937815       -0.66459908368724        1.45356247435518
H           -5.84409205197285       -2.41247023456823       -0.10820163492712
H           -5.82675807615139       -0.86155361989806       -0.97144767483573
H           -4.51920556409113       -2.04328093410686       -1.22676207870909
