 xtb: 6.7.1 (edcfbbe)
          04092505213D

 41 40  0     0  0            999 V2000
    2.6825   -3.0507   -1.2184 C   0  0  0  0  0  0  0  0  0  0  0  0
    3.9761   -2.3155   -0.9442 C   0  0  0  0  0  0  0  0  0  0  0  0
    3.8414   -0.8774   -1.0865 O   0  0  0  0  0  0  0  0  0  0  0  0
    2.8420    0.0339   -0.2875 P   0  0  0  0  0  0  0  0  0  0  0  0
    3.4061    1.9096   -0.2643 S   0  0  0  0  0  0  0  0  0  0  0  0
    2.8155   -0.6825    1.1346 O   0  0  0  0  0  0  0  0  0  0  0  0
    2.2084   -0.1096    2.3077 C   0  0  0  0  0  0  0  0  0  0  0  0
    0.9707   -0.8951    2.6944 C   0  0  0  0  0  0  0  0  0  0  0  0
    0.9348   -0.2895   -1.2109 S   0  0  0  0  0  0  0  0  0  0  0  0
    0.2782    1.3883   -1.1102 C   0  0  0  0  0  0  0  0  0  0  0  0
   -0.5196    1.7358    0.4826 S   0  0  0  0  0  0  0  0  0  0  0  0
   -2.2543    0.5849    0.1097 P   0  0  0  0  0  0  0  0  0  0  0  0
   -2.9603    0.6940   -1.7213 S   0  0  0  0  0  0  0  0  0  0  0  0
   -3.0918    1.1861    1.3100 O   0  0  0  0  0  0  0  0  0  0  0  0
   -4.2521    0.5367    1.8740 C   0  0  0  0  0  0  0  0  0  0  0  0
   -5.4690    0.6766    0.9812 C   0  0  0  0  0  0  0  0  0  0  0  0
   -1.9371   -0.8977    0.5987 O   0  0  0  0  0  0  0  0  0  0  0  0
   -1.9030   -2.0547   -0.2573 C   0  0  0  0  0  0  0  0  0  0  0  0
   -3.1948   -2.8363   -0.1252 C   0  0  0  0  0  0  0  0  0  0  0  0
    2.8656   -4.1198   -1.1747 H   0  0  0  0  0  0  0  0  0  0  0  0
    1.9367   -2.7868   -0.4712 H   0  0  0  0  0  0  0  0  0  0  0  0
    2.2971   -2.7918   -2.2013 H   0  0  0  0  0  0  0  0  0  0  0  0
    4.7456   -2.5637   -1.6766 H   0  0  0  0  0  0  0  0  0  0  0  0
    4.3394   -2.5222    0.0641 H   0  0  0  0  0  0  0  0  0  0  0  0
    2.9722   -0.1722    3.0858 H   0  0  0  0  0  0  0  0  0  0  0  0
    1.9744    0.9436    2.1211 H   0  0  0  0  0  0  0  0  0  0  0  0
    0.2063   -0.8110    1.9262 H   0  0  0  0  0  0  0  0  0  0  0  0
    1.2230   -1.9427    2.8322 H   0  0  0  0  0  0  0  0  0  0  0  0
    0.5751   -0.4950    3.6223 H   0  0  0  0  0  0  0  0  0  0  0  0
   -0.4558    1.4945   -1.9099 H   0  0  0  0  0  0  0  0  0  0  0  0
    1.0966    2.1013   -1.2208 H   0  0  0  0  0  0  0  0  0  0  0  0
   -4.0125   -0.5143    2.0526 H   0  0  0  0  0  0  0  0  0  0  0  0
   -4.3964    1.0499    2.8262 H   0  0  0  0  0  0  0  0  0  0  0  0
   -5.2994    0.1811    0.0268 H   0  0  0  0  0  0  0  0  0  0  0  0
   -6.3275    0.2254    1.4685 H   0  0  0  0  0  0  0  0  0  0  0  0
   -5.6753    1.7264    0.7885 H   0  0  0  0  0  0  0  0  0  0  0  0
   -1.7452   -1.7349   -1.2913 H   0  0  0  0  0  0  0  0  0  0  0  0
   -1.0434   -2.6363    0.0781 H   0  0  0  0  0  0  0  0  0  0  0  0
   -4.0294   -2.2386   -0.4858 H   0  0  0  0  0  0  0  0  0  0  0  0
   -3.1259   -3.7393   -0.7228 H   0  0  0  0  0  0  0  0  0  0  0  0
   -3.3704   -3.1055    0.9127 H   0  0  0  0  0  0  0  0  0  0  0  0
  1  2  1  0  0  0  0
  2  3  1  0  0  0  0
  3  4  2  0  0  0  0
  4  5  2  0  0  0  0
  4  6  2  0  0  0  0
  6  7  1  0  0  0  0
  7  8  1  0  0  0  0
  4  9  1  0  0  0  0
  9 10  1  0  0  0  0
 10 11  1  0  0  0  0
 11 12  1  0  0  0  0
 12 13  2  0  0  0  0
 12 14  2  0  0  0  0
 14 15  1  0  0  0  0
 15 16  1  0  0  0  0
 12 17  2  0  0  0  0
 17 18  1  0  0  0  0
 18 19  1  0  0  0  0
  1 20  1  0  0  0  0
  1 21  1  0  0  0  0
  1 22  1  0  0  0  0
  2 23  1  0  0  0  0
  2 24  1  0  0  0  0
  7 25  1  0  0  0  0
  7 26  1  0  0  0  0
  8 27  1  0  0  0  0
  8 28  1  0  0  0  0
  8 29  1  0  0  0  0
 10 30  1  0  0  0  0
 10 31  1  0  0  0  0
 15 32  1  0  0  0  0
 15 33  1  0  0  0  0
 16 34  1  0  0  0  0
 16 35  1  0  0  0  0
 16 36  1  0  0  0  0
 18 37  1  0  0  0  0
 18 38  1  0  0  0  0
 19 39  1  0  0  0  0
 19 40  1  0  0  0  0
 19 41  1  0  0  0  0
M  END
