 xtb: 6.7.1 (edcfbbe)
          04092507313D

 38 37  0     0  0            999 V2000
    3.0834   -1.6101    1.6200 C   0  0  0  0  0  0  0  0  0  0  0  0
    2.9418   -2.2409    0.2446 C   0  0  0  0  0  0  0  0  0  0  0  0
    2.6639   -1.2346   -0.7490 O   0  0  0  0  0  0  0  0  0  0  0  0
    1.4252   -0.9836   -1.0874 C   0  0  0  0  0  0  0  0  0  0  0  0
    0.4552   -1.5701   -0.6337 O   0  0  0  0  0  0  0  0  0  0  0  0
    1.3232    0.1008   -2.1326 C   0  0  0  0  0  0  0  0  0  0  0  0
    0.1964    1.0716   -1.8018 C   0  0  0  0  0  0  0  0  0  0  0  0
    0.1023    1.8206   -2.5938 H   0  0  0  0  0  0  0  0  0  0  0  0
    0.3679    1.8106   -0.4834 C   0  0  0  0  0  0  0  0  0  0  0  0
   -0.5530    2.3817    0.0640 O   0  0  0  0  0  0  0  0  0  0  0  0
    1.6016    1.7793   -0.0549 O   0  0  0  0  0  0  0  0  0  0  0  0
    1.9146    2.4436    1.1874 C   0  0  0  0  0  0  0  0  0  0  0  0
    3.4104    2.6825    1.2256 C   0  0  0  0  0  0  0  0  0  0  0  0
   -1.4627    0.2849   -1.7849 S   0  0  0  0  0  0  0  0  0  0  0  0
   -1.6876   -0.4689    0.1905 P   0  0  0  0  0  0  0  0  0  0  0  0
   -0.4986   -0.2226    1.7411 S   0  0  0  0  0  0  0  0  0  0  0  0
   -3.1509    0.1152    0.5155 O   0  0  0  0  0  0  0  0  0  0  0  0
   -3.3972    1.4886    0.8087 C   0  0  0  0  0  0  0  0  0  0  0  0
   -2.2222   -1.9443   -0.0370 O   0  0  0  0  0  0  0  0  0  0  0  0
   -1.6066   -3.1392    0.4448 C   0  0  0  0  0  0  0  0  0  0  0  0
    3.8708   -0.8624    1.6112 H   0  0  0  0  0  0  0  0  0  0  0  0
    2.1487   -1.1368    1.9170 H   0  0  0  0  0  0  0  0  0  0  0  0
    3.3294   -2.3799    2.3438 H   0  0  0  0  0  0  0  0  0  0  0  0
    2.1335   -2.9771    0.2370 H   0  0  0  0  0  0  0  0  0  0  0  0
    3.8772   -2.6974   -0.0807 H   0  0  0  0  0  0  0  0  0  0  0  0
    1.1023   -0.3725   -3.0914 H   0  0  0  0  0  0  0  0  0  0  0  0
    2.2750    0.6271   -2.1916 H   0  0  0  0  0  0  0  0  0  0  0  0
    1.3430    3.3751    1.2344 H   0  0  0  0  0  0  0  0  0  0  0  0
    1.5812    1.7906    2.0008 H   0  0  0  0  0  0  0  0  0  0  0  0
    3.9376    1.7393    1.1210 H   0  0  0  0  0  0  0  0  0  0  0  0
    3.7072    3.3448    0.4179 H   0  0  0  0  0  0  0  0  0  0  0  0
    3.6725    3.1354    2.1756 H   0  0  0  0  0  0  0  0  0  0  0  0
   -4.4334    1.5353    1.1339 H   0  0  0  0  0  0  0  0  0  0  0  0
   -3.2417    2.1018   -0.0796 H   0  0  0  0  0  0  0  0  0  0  0  0
   -2.7292    1.8337    1.6001 H   0  0  0  0  0  0  0  0  0  0  0  0
   -0.9385   -2.9138    1.2779 H   0  0  0  0  0  0  0  0  0  0  0  0
   -1.0444   -3.5993   -0.3658 H   0  0  0  0  0  0  0  0  0  0  0  0
   -2.4175   -3.7862    0.7723 H   0  0  0  0  0  0  0  0  0  0  0  0
  1  2  1  0  0  0  0
  2  3  1  0  0  0  0
  3  4  4  0  0  0  0
  4  5  2  0  0  0  0
  4  6  1  0  0  0  0
  6  7  1  0  0  0  0
  7  8  1  0  0  0  0
  7  9  1  0  0  0  0
  9 10  2  0  0  0  0
  9 11  4  0  0  0  0
 11 12  1  0  0  0  0
 12 13  1  0  0  0  0
  7 14  1  0  0  0  0
 14 15  1  0  0  0  0
 15 16  2  0  0  0  0
 15 17  1  0  0  0  0
 17 18  1  0  0  0  0
 15 19  2  0  0  0  0
 19 20  1  0  0  0  0
  1 21  1  0  0  0  0
  1 22  1  0  0  0  0
  1 23  1  0  0  0  0
  2 24  1  0  0  0  0
  2 25  1  0  0  0  0
  6 26  1  0  0  0  0
  6 27  1  0  0  0  0
 12 28  1  0  0  0  0
 12 29  1  0  0  0  0
 13 30  1  0  0  0  0
 13 31  1  0  0  0  0
 13 32  1  0  0  0  0
 18 33  1  0  0  0  0
 18 34  1  0  0  0  0
 18 35  1  0  0  0  0
 20 36  1  0  0  0  0
 20 37  1  0  0  0  0
 20 38  1  0  0  0  0
M  END
