 xtb: 6.7.1 (edcfbbe)
          04092507313D

 38 37  0     0  0            999 V2000
    5.5853   -1.2995   -0.1028 C   0  0  0  0  0  0  0  0  0  0  0  0
    4.6002   -0.6156   -1.0311 C   0  0  0  0  0  0  0  0  0  0  0  0
    3.2942   -1.1859   -0.8117 O   0  0  0  0  0  0  0  0  0  0  0  0
    2.3955   -1.0765   -1.7686 C   0  0  0  0  0  0  0  0  0  0  0  0
    2.5951   -0.5665   -2.8476 O   0  0  0  0  0  0  0  0  0  0  0  0
    1.0626   -1.6688   -1.3412 C   0  0  0  0  0  0  0  0  0  0  0  0
    0.1049   -0.5109   -1.0334 C   0  0  0  0  0  0  0  0  0  0  0  0
   -0.0729    0.0797   -1.9361 H   0  0  0  0  0  0  0  0  0  0  0  0
    0.7712    0.3779    0.0000 C   0  0  0  0  0  0  0  0  0  0  0  0
    1.6464    1.1569   -0.3023 O   0  0  0  0  0  0  0  0  0  0  0  0
    0.3618    0.1322    1.2258 O   0  0  0  0  0  0  0  0  0  0  0  0
    1.0321    0.8069    2.3095 C   0  0  0  0  0  0  0  0  0  0  0  0
    2.2329   -0.0046    2.7651 C   0  0  0  0  0  0  0  0  0  0  0  0
   -1.4752   -1.1930   -0.4374 S   0  0  0  0  0  0  0  0  0  0  0  0
   -2.3153    0.5864    0.3606 P   0  0  0  0  0  0  0  0  0  0  0  0
   -1.5875    2.2722   -0.3289 S   0  0  0  0  0  0  0  0  0  0  0  0
   -3.8766    0.3738    0.0853 O   0  0  0  0  0  0  0  0  0  0  0  0
   -4.4141    0.4136   -1.2415 C   0  0  0  0  0  0  0  0  0  0  0  0
   -2.2924    0.4993    1.9351 O   0  0  0  0  0  0  0  0  0  0  0  0
   -2.8162   -0.6464    2.6421 C   0  0  0  0  0  0  0  0  0  0  0  0
    5.6192   -2.3644   -0.3130 H   0  0  0  0  0  0  0  0  0  0  0  0
    6.5710   -0.8729   -0.2551 H   0  0  0  0  0  0  0  0  0  0  0  0
    5.2899   -1.1543    0.9321 H   0  0  0  0  0  0  0  0  0  0  0  0
    4.8630   -0.7541   -2.0842 H   0  0  0  0  0  0  0  0  0  0  0  0
    4.5248    0.4582   -0.8306 H   0  0  0  0  0  0  0  0  0  0  0  0
    1.2043   -2.2845   -0.4533 H   0  0  0  0  0  0  0  0  0  0  0  0
    0.6524   -2.2650   -2.1559 H   0  0  0  0  0  0  0  0  0  0  0  0
    1.3304    1.8003    1.9620 H   0  0  0  0  0  0  0  0  0  0  0  0
    0.2759    0.8949    3.0897 H   0  0  0  0  0  0  0  0  0  0  0  0
    1.9181   -0.9919    3.0906 H   0  0  0  0  0  0  0  0  0  0  0  0
    2.9391   -0.1097    1.9440 H   0  0  0  0  0  0  0  0  0  0  0  0
    2.7189    0.5088    3.5879 H   0  0  0  0  0  0  0  0  0  0  0  0
   -4.0545    1.2998   -1.7668 H   0  0  0  0  0  0  0  0  0  0  0  0
   -5.4932    0.4577   -1.1185 H   0  0  0  0  0  0  0  0  0  0  0  0
   -4.1250   -0.4857   -1.7851 H   0  0  0  0  0  0  0  0  0  0  0  0
   -2.3214   -1.5530    2.2943 H   0  0  0  0  0  0  0  0  0  0  0  0
   -3.8896   -0.7198    2.4818 H   0  0  0  0  0  0  0  0  0  0  0  0
   -2.5935   -0.4598    3.6893 H   0  0  0  0  0  0  0  0  0  0  0  0
  1  2  1  0  0  0  0
  2  3  1  0  0  0  0
  3  4  1  0  0  0  0
  4  5  2  0  0  0  0
  4  6  1  0  0  0  0
  6  7  1  0  0  0  0
  7  8  1  0  0  0  0
  7  9  1  0  0  0  0
  9 10  2  0  0  0  0
  9 11  1  0  0  0  0
 11 12  1  0  0  0  0
 12 13  1  0  0  0  0
  7 14  1  0  0  0  0
 14 15  1  0  0  0  0
 15 16  2  0  0  0  0
 15 17  1  0  0  0  0
 17 18  1  0  0  0  0
 15 19  2  0  0  0  0
 19 20  1  0  0  0  0
  1 21  1  0  0  0  0
  1 22  1  0  0  0  0
  1 23  1  0  0  0  0
  2 24  1  0  0  0  0
  2 25  1  0  0  0  0
  6 26  1  0  0  0  0
  6 27  1  0  0  0  0
 12 28  1  0  0  0  0
 12 29  1  0  0  0  0
 13 30  1  0  0  0  0
 13 31  1  0  0  0  0
 13 32  1  0  0  0  0
 18 33  1  0  0  0  0
 18 34  1  0  0  0  0
 18 35  1  0  0  0  0
 20 36  1  0  0  0  0
 20 37  1  0  0  0  0
 20 38  1  0  0  0  0
M  END
