 xtb: 6.7.1 (edcfbbe)
          04092505213D

 41 40  0     0  0            999 V2000
    2.8834   -1.4916   -2.9186 C   0  0  0  0  0  0  0  0  0  0  0  0
    3.2270   -0.3939   -1.9317 C   0  0  0  0  0  0  0  0  0  0  0  0
    2.8677   -0.8263   -0.6047 O   0  0  0  0  0  0  0  0  0  0  0  0
    2.1155    0.0398    0.4852 P   0  0  0  0  0  0  0  0  0  0  0  0
    1.4892    1.7975   -0.1598 S   0  0  0  0  0  0  0  0  0  0  0  0
    3.2554    0.1462    1.5882 O   0  0  0  0  0  0  0  0  0  0  0  0
    3.0393    0.2891    3.0040 C   0  0  0  0  0  0  0  0  0  0  0  0
    2.0643    1.3985    3.3410 C   0  0  0  0  0  0  0  0  0  0  0  0
    0.8213   -1.3860    1.3595 S   0  0  0  0  0  0  0  0  0  0  0  0
   -0.0635   -2.0263   -0.1016 C   0  0  0  0  0  0  0  0  0  0  0  0
   -0.3356   -0.8267   -1.4350 S   0  0  0  0  0  0  0  0  0  0  0  0
   -1.8884    0.3155   -0.5959 P   0  0  0  0  0  0  0  0  0  0  0  0
   -2.5369    1.8461   -1.6306 S   0  0  0  0  0  0  0  0  0  0  0  0
   -1.2607    0.6237    0.8248 O   0  0  0  0  0  0  0  0  0  0  0  0
   -1.9374    1.4658    1.7827 C   0  0  0  0  0  0  0  0  0  0  0  0
   -2.6002    0.6178    2.8486 C   0  0  0  0  0  0  0  0  0  0  0  0
   -3.0295   -0.7353   -0.2079 O   0  0  0  0  0  0  0  0  0  0  0  0
   -4.1043   -1.0523   -1.1067 C   0  0  0  0  0  0  0  0  0  0  0  0
   -3.6244   -1.8421   -2.3076 C   0  0  0  0  0  0  0  0  0  0  0  0
    3.3687   -2.4174   -2.6239 H   0  0  0  0  0  0  0  0  0  0  0  0
    1.8071   -1.6446   -2.9540 H   0  0  0  0  0  0  0  0  0  0  0  0
    3.2326   -1.2001   -3.9037 H   0  0  0  0  0  0  0  0  0  0  0  0
    2.6949    0.5364   -2.1606 H   0  0  0  0  0  0  0  0  0  0  0  0
    4.3009   -0.1958   -1.9151 H   0  0  0  0  0  0  0  0  0  0  0  0
    2.6818   -0.6700    3.3898 H   0  0  0  0  0  0  0  0  0  0  0  0
    4.0354    0.4990    3.3975 H   0  0  0  0  0  0  0  0  0  0  0  0
    1.9794    1.4935    4.4187 H   0  0  0  0  0  0  0  0  0  0  0  0
    2.4025    2.3424    2.9188 H   0  0  0  0  0  0  0  0  0  0  0  0
    1.0841    1.1665    2.9245 H   0  0  0  0  0  0  0  0  0  0  0  0
   -1.0198   -2.3963    0.2626 H   0  0  0  0  0  0  0  0  0  0  0  0
    0.5293   -2.8236   -0.5444 H   0  0  0  0  0  0  0  0  0  0  0  0
   -1.1547    2.1044    2.1995 H   0  0  0  0  0  0  0  0  0  0  0  0
   -2.6608    2.0939    1.2522 H   0  0  0  0  0  0  0  0  0  0  0  0
   -1.8631   -0.0292    3.3171 H   0  0  0  0  0  0  0  0  0  0  0  0
   -3.0378    1.2697    3.5979 H   0  0  0  0  0  0  0  0  0  0  0  0
   -3.3798    0.0021    2.4075 H   0  0  0  0  0  0  0  0  0  0  0  0
   -4.8007   -1.6276   -0.4953 H   0  0  0  0  0  0  0  0  0  0  0  0
   -4.5716   -0.1160   -1.4275 H   0  0  0  0  0  0  0  0  0  0  0  0
   -4.4772   -2.1141   -2.9211 H   0  0  0  0  0  0  0  0  0  0  0  0
   -2.9443   -1.2320   -2.9020 H   0  0  0  0  0  0  0  0  0  0  0  0
   -3.1056   -2.7437   -1.9926 H   0  0  0  0  0  0  0  0  0  0  0  0
  1  2  1  0  0  0  0
  2  3  1  0  0  0  0
  3  4  2  0  0  0  0
  4  5  2  0  0  0  0
  4  6  2  0  0  0  0
  6  7  1  0  0  0  0
  7  8  1  0  0  0  0
  4  9  1  0  0  0  0
  9 10  1  0  0  0  0
 10 11  1  0  0  0  0
 11 12  1  0  0  0  0
 12 13  2  0  0  0  0
 12 14  2  0  0  0  0
 14 15  1  0  0  0  0
 15 16  1  0  0  0  0
 12 17  2  0  0  0  0
 17 18  1  0  0  0  0
 18 19  1  0  0  0  0
  1 20  1  0  0  0  0
  1 21  1  0  0  0  0
  1 22  1  0  0  0  0
  2 23  1  0  0  0  0
  2 24  1  0  0  0  0
  7 25  1  0  0  0  0
  7 26  1  0  0  0  0
  8 27  1  0  0  0  0
  8 28  1  0  0  0  0
  8 29  1  0  0  0  0
 10 30  1  0  0  0  0
 10 31  1  0  0  0  0
 15 32  1  0  0  0  0
 15 33  1  0  0  0  0
 16 34  1  0  0  0  0
 16 35  1  0  0  0  0
 16 36  1  0  0  0  0
 18 37  1  0  0  0  0
 18 38  1  0  0  0  0
 19 39  1  0  0  0  0
 19 40  1  0  0  0  0
 19 41  1  0  0  0  0
M  END
