19
 xtb: 6.7.1 (edcfbbe)
C           -3.09439652734063        0.36908830017711        0.00074659385612
C           -1.63057906945307        0.02828587811363       -0.00030417161027
C           -1.18824928250300       -1.29501392599326       -0.00005640581424
C            0.17675195998801       -1.58374701364703        0.00046971382659
C            1.14367226975559       -0.58046766270958        0.00049671659590
C            0.68462809466556        0.74549313078191       -0.00008315216750
C           -0.67313110703696        1.04781218800256       -0.00040200267577
O            1.64551601290684        1.73638157819388       -0.00068773280118
C            2.61277374009547       -0.88195076190654        0.00039547000216
H           -3.35871380541474        0.97603722326272       -0.87205666537462
H           -3.70891113437136       -0.53437188257046       -0.01260945369010
H           -3.36279718126788        0.95184324681714        0.88879852417054
H           -1.91182635616133       -2.10478470654097       -0.00023322904465
H            0.50457203258852       -2.62008102370607        0.00071694318821
H           -0.98607692258476        2.08999606480400       -0.00078776063508
H            1.20637826143019        2.59845309370185       -0.00082070227690
H            3.10803561065045       -0.46246640784162       -0.88247120156848
H            3.11042131490790       -0.45193944302810        0.87676119470929
H            2.78046168112531       -1.96151113247711        0.00650762915693
