 xtb: 6.7.1 (edcfbbe)
          04092505213D

 41 40  0     0  0            999 V2000
    4.2784   -0.2165   -2.2022 C   0  0  0  0  0  0  0  0  0  0  0  0
    4.4277   -0.5918   -0.7413 C   0  0  0  0  0  0  0  0  0  0  0  0
    3.1550   -0.7615   -0.0953 O   0  0  0  0  0  0  0  0  0  0  0  0
    2.2136    0.4809    0.2474 P   0  0  0  0  0  0  0  0  0  0  0  0
    3.1464    2.1199    0.7712 S   0  0  0  0  0  0  0  0  0  0  0  0
    1.2329   -0.1340    1.3276 O   0  0  0  0  0  0  0  0  0  0  0  0
    1.5206   -0.0991    2.7392 C   0  0  0  0  0  0  0  0  0  0  0  0
    2.6498   -1.0382    3.1066 C   0  0  0  0  0  0  0  0  0  0  0  0
    0.8770    0.6399   -1.3824 S   0  0  0  0  0  0  0  0  0  0  0  0
    0.4235   -1.1059   -1.6032 C   0  0  0  0  0  0  0  0  0  0  0  0
   -0.6393   -1.7851   -0.2944 S   0  0  0  0  0  0  0  0  0  0  0  0
   -2.1036   -0.2756   -0.3095 P   0  0  0  0  0  0  0  0  0  0  0  0
   -2.6397    0.4211   -2.0666 S   0  0  0  0  0  0  0  0  0  0  0  0
   -1.5165    0.7680    0.7286 O   0  0  0  0  0  0  0  0  0  0  0  0
   -1.8552    2.1665    0.6762 C   0  0  0  0  0  0  0  0  0  0  0  0
   -3.2782    2.4055    1.1334 C   0  0  0  0  0  0  0  0  0  0  0  0
   -3.2798   -0.9212    0.5403 O   0  0  0  0  0  0  0  0  0  0  0  0
   -4.1712   -1.9001   -0.0333 C   0  0  0  0  0  0  0  0  0  0  0  0
   -5.3954   -1.9933    0.8547 C   0  0  0  0  0  0  0  0  0  0  0  0
    5.2621   -0.1447   -2.6552 H   0  0  0  0  0  0  0  0  0  0  0  0
    3.6938   -0.9620   -2.7349 H   0  0  0  0  0  0  0  0  0  0  0  0
    3.7805    0.7491   -2.2881 H   0  0  0  0  0  0  0  0  0  0  0  0
    4.9867    0.1818   -0.2052 H   0  0  0  0  0  0  0  0  0  0  0  0
    4.9182   -1.5585   -0.6194 H   0  0  0  0  0  0  0  0  0  0  0  0
    1.7658    0.9316    3.0163 H   0  0  0  0  0  0  0  0  0  0  0  0
    0.5775   -0.3944    3.2019 H   0  0  0  0  0  0  0  0  0  0  0  0
    2.7530   -1.0691    4.1868 H   0  0  0  0  0  0  0  0  0  0  0  0
    2.4419   -2.0373    2.7328 H   0  0  0  0  0  0  0  0  0  0  0  0
    3.5831   -0.6835    2.6719 H   0  0  0  0  0  0  0  0  0  0  0  0
    1.3169   -1.7248   -1.6231 H   0  0  0  0  0  0  0  0  0  0  0  0
   -0.1093   -1.1395   -2.5524 H   0  0  0  0  0  0  0  0  0  0  0  0
   -1.1262    2.6430    1.3343 H   0  0  0  0  0  0  0  0  0  0  0  0
   -1.7083    2.5233   -0.3494 H   0  0  0  0  0  0  0  0  0  0  0  0
   -3.4753    3.4726    1.1585 H   0  0  0  0  0  0  0  0  0  0  0  0
   -3.9692    1.9322    0.4365 H   0  0  0  0  0  0  0  0  0  0  0  0
   -3.4301    1.9825    2.1228 H   0  0  0  0  0  0  0  0  0  0  0  0
   -4.4321   -1.5801   -1.0477 H   0  0  0  0  0  0  0  0  0  0  0  0
   -3.6412   -2.8550   -0.0847 H   0  0  0  0  0  0  0  0  0  0  0  0
   -5.1004   -2.2664    1.8636 H   0  0  0  0  0  0  0  0  0  0  0  0
   -5.9111   -1.0377    0.8852 H   0  0  0  0  0  0  0  0  0  0  0  0
   -6.0654   -2.7489    0.4579 H   0  0  0  0  0  0  0  0  0  0  0  0
  1  2  1  0  0  0  0
  2  3  1  0  0  0  0
  3  4  2  0  0  0  0
  4  5  2  0  0  0  0
  4  6  2  0  0  0  0
  6  7  1  0  0  0  0
  7  8  1  0  0  0  0
  4  9  1  0  0  0  0
  9 10  1  0  0  0  0
 10 11  1  0  0  0  0
 11 12  1  0  0  0  0
 12 13  2  0  0  0  0
 12 14  2  0  0  0  0
 14 15  1  0  0  0  0
 15 16  1  0  0  0  0
 12 17  2  0  0  0  0
 17 18  1  0  0  0  0
 18 19  1  0  0  0  0
  1 20  1  0  0  0  0
  1 21  1  0  0  0  0
  1 22  1  0  0  0  0
  2 23  1  0  0  0  0
  2 24  1  0  0  0  0
  7 25  1  0  0  0  0
  7 26  1  0  0  0  0
  8 27  1  0  0  0  0
  8 28  1  0  0  0  0
  8 29  1  0  0  0  0
 10 30  1  0  0  0  0
 10 31  1  0  0  0  0
 15 32  1  0  0  0  0
 15 33  1  0  0  0  0
 16 34  1  0  0  0  0
 16 35  1  0  0  0  0
 16 36  1  0  0  0  0
 18 37  1  0  0  0  0
 18 38  1  0  0  0  0
 19 39  1  0  0  0  0
 19 40  1  0  0  0  0
 19 41  1  0  0  0  0
M  END
