  24
 
 C         -1.0441573851       -2.9170035579       -0.0305100217
 C         -1.0131297227       -1.4179150542       -0.0322947100
 C         -2.1806126082       -0.7028012819       -0.0730930765
 C         -2.1823691818        0.6977374325       -0.0731539769
 C         -1.0166842917        1.4157722260       -0.0323160023
 C          0.2180476597        0.7120420698        0.0090960229
 C          0.2198345639       -0.7110998802        0.0091097724
 C          1.4607907721       -1.3834169622        0.0505152038
 C          2.6419549333       -0.6967851978        0.0897684604
 C          2.6401964165        0.7037971661        0.0897006908
 C          1.4573152358        1.3874683787        0.0505011570
 C         -1.0514644232        2.9147777820       -0.0302920218
 H         -0.5741327815       -3.3107202643        0.8693703033
 H         -2.0715641626       -3.2707147790       -0.0642845481
 H         -0.5137475423       -3.3149173626       -0.8940048848
 H         -3.1276980895       -1.2227712049       -0.1054544360
 H         -3.1307508586        1.2153332933       -0.1053877379
 H          1.4752508588       -2.4617405462        0.0507099036
 H          3.5810698580       -1.2295581240        0.1207938074
 H          3.5779745963        1.2389232422        0.1207896497
 H          1.4690644554        2.4658234423        0.0508023502
 H         -0.5823758732        3.3095280127        0.8695353238
 H         -0.5221325506        3.3140426089       -0.8937118733
 H         -2.0797020998        3.2660070003       -0.0639005801
          24
        -31.81523937
 C         -1.0437298202       -2.9159597054        0.0010130979
 C         -1.0108497597       -1.4168721799       -0.0000375341
 C         -2.1781343324       -0.7002971645       -0.0004616024
 C         -2.1781571379        0.7002187907       -0.0005681057
 C         -1.0108983303        1.4168383379        0.0000150455
 C          0.2236735336        0.7115899465        0.0001760770
 C          0.2236971685       -0.7115860055       -0.0001325376
 C          1.4645424200       -1.3853966211       -0.0007000662
 C          2.6472011201       -0.7002616854       -0.0006355940
 C          2.6471841246        0.7003570859        0.0003232806
 C          1.4644919876        1.3854421975        0.0006107310
 C         -1.0438438444        2.9159318245        0.0001706693
 H         -0.5448663391       -3.3116501117        0.8845007376
 H         -2.0720603560       -3.2681041350        0.0001280408
 H         -0.5427790911       -3.3133223280       -0.8805009318
 H         -3.1263832412       -1.2191877189       -0.0005284104
 H         -3.1264303342        1.2190664989       -0.0010248431
 H          1.4776311249       -2.4637400515       -0.0012341457
 H          3.5861808485       -1.2341643868       -0.0011046939
 H          3.5861512236        1.2342821703        0.0008406319
 H          1.4775554989        2.4637898791        0.0011601892
 H         -0.5425970569        3.3124913515        0.8818576636
 H         -0.5452987574        3.3124305422       -0.8831145628
 H         -2.0721699974        3.2680508366        0.0017199537
