41
 xtb: 6.7.1 (edcfbbe)
C            5.97871297787780        0.31688668131801       -0.18087389880772
C            4.89614200768271        0.97952258343231       -0.99681508459427
O            3.69017227155684        0.13955713831697       -1.09495450566236
P            2.71537572421320       -0.07580018483287        0.16694917794725
S            2.48155074577547        1.45484358950012        1.34532393568161
O            3.30904198549343       -1.42227916780837        0.82512989032963
C            3.09646156842385       -1.77955996996140        2.23485577153077
C            1.71877850289115       -2.34801904809835        2.47049621934588
S            1.00392536892940       -0.86880935818889       -0.78933205219330
C            0.33947585317274        0.62842261679668       -1.62498148015244
S           -0.79051629184292        1.69281650981050       -0.64445888784559
P           -2.41624818322724        0.37308225393171       -0.34463470726472
S           -2.71296263829758       -0.96271257192052       -1.73114080244027
O           -3.61220059458167        1.41668626276051       -0.05925047201224
C           -4.29866556989282        2.07136220286855       -1.18299461222640
C           -5.15590563341327        3.16628553449913       -0.60429469621097
O           -2.12924362570025       -0.16792406350026        1.14014907099392
C           -2.79656043888971       -1.36871996991390        1.67084978539208
C           -4.24060102301967       -1.10274253312008        2.01681152713946
H            6.21145135644505       -0.67726749322534       -0.57311957252077
H            6.88341770964097        0.93117279022382       -0.23793268336413
H            5.69482962017001        0.22803453369438        0.87220423921775
H            5.19795581590710        1.11019818994590       -2.03774307494044
H            4.60510598898714        1.95015430211165       -0.58397974288275
H            3.87498226091707       -2.51981976238285        2.42981793787867
H            3.28502681729711       -0.89236786247478        2.84656850134892
H            1.65920231697792       -2.69891533030779        3.50598297572451
H            0.93876991222014       -1.59483167483952        2.32269079452031
H            1.52645629980252       -3.19708660550775        1.80799097776619
H           -0.19737094656511        0.26082993390068       -2.50316846851390
H            1.15645456488299        1.27676525594951       -1.95488377020604
H           -3.54701978313080        2.46993470730698       -1.87293186572555
H           -4.89467275514748        1.31304275450157       -1.69901951320209
H           -4.54385727798062        3.91609420326279       -0.09521143909265
H           -5.69887262494672        3.65670947713629       -1.41790985857060
H           -5.88551782888047        2.75929323658328        0.10150667418082
H           -2.68927932473753       -2.17285255229799        0.93640658197066
H           -2.20658674703864       -1.61378160484536        2.55618151364689
H           -4.64997964816776       -1.99190503452385        2.50760349793235
H           -4.32901463670239       -0.25736445483157        2.70513116511826
H           -4.84052225753553       -0.90126282436850        1.12443957691157
