 xtb: 6.7.1 (edcfbbe)
          04092505213D

 41 40  0     0  0            999 V2000
    0.9135   -1.1072    2.5768 C   0  0  0  0  0  0  0  0  0  0  0  0
    2.4088   -0.8769    2.6418 C   0  0  0  0  0  0  0  0  0  0  0  0
    2.8895   -0.0316    1.5821 O   0  0  0  0  0  0  0  0  0  0  0  0
    2.6788   -0.3370    0.0323 P   0  0  0  0  0  0  0  0  0  0  0  0
    2.8224   -2.2022   -0.5299 S   0  0  0  0  0  0  0  0  0  0  0  0
    3.8090    0.5542   -0.6097 O   0  0  0  0  0  0  0  0  0  0  0  0
    3.9564    1.9663   -0.3123 C   0  0  0  0  0  0  0  0  0  0  0  0
    4.6917    2.6099   -1.4691 C   0  0  0  0  0  0  0  0  0  0  0  0
    0.8755    0.7050   -0.4887 S   0  0  0  0  0  0  0  0  0  0  0  0
    0.0273   -0.5933   -1.4146 C   0  0  0  0  0  0  0  0  0  0  0  0
   -1.1838   -1.5180   -0.4235 S   0  0  0  0  0  0  0  0  0  0  0  0
   -2.5160    0.0874   -0.1446 P   0  0  0  0  0  0  0  0  0  0  0  0
   -2.7716    1.3276   -1.6481 S   0  0  0  0  0  0  0  0  0  0  0  0
   -1.9166    0.7132    1.1791 O   0  0  0  0  0  0  0  0  0  0  0  0
   -2.2489    2.0472    1.6278 C   0  0  0  0  0  0  0  0  0  0  0  0
   -1.0621    2.6015    2.3894 C   0  0  0  0  0  0  0  0  0  0  0  0
   -3.8597   -0.5660    0.4019 O   0  0  0  0  0  0  0  0  0  0  0  0
   -4.9195   -0.9990   -0.4683 C   0  0  0  0  0  0  0  0  0  0  0  0
   -4.5175   -2.1999   -1.3000 C   0  0  0  0  0  0  0  0  0  0  0  0
    0.3785   -0.1626    2.5121 H   0  0  0  0  0  0  0  0  0  0  0  0
    0.6675   -1.7117    1.7040 H   0  0  0  0  0  0  0  0  0  0  0  0
    0.5919   -1.6401    3.4659 H   0  0  0  0  0  0  0  0  0  0  0  0
    2.9425   -1.8301    2.5882 H   0  0  0  0  0  0  0  0  0  0  0  0
    2.6953   -0.3400    3.5476 H   0  0  0  0  0  0  0  0  0  0  0  0
    2.9609    2.4005   -0.1796 H   0  0  0  0  0  0  0  0  0  0  0  0
    4.5161    2.0510    0.6208 H   0  0  0  0  0  0  0  0  0  0  0  0
    4.8458    3.6621   -1.2530 H   0  0  0  0  0  0  0  0  0  0  0  0
    5.6535    2.1259   -1.6124 H   0  0  0  0  0  0  0  0  0  0  0  0
    4.1120    2.5120   -2.3827 H   0  0  0  0  0  0  0  0  0  0  0  0
    0.7564   -1.3231   -1.7689 H   0  0  0  0  0  0  0  0  0  0  0  0
   -0.4914   -0.1070   -2.2397 H   0  0  0  0  0  0  0  0  0  0  0  0
   -2.4809    2.6626    0.7517 H   0  0  0  0  0  0  0  0  0  0  0  0
   -3.1356    1.9735    2.2615 H   0  0  0  0  0  0  0  0  0  0  0  0
   -0.1851    2.6174    1.7468 H   0  0  0  0  0  0  0  0  0  0  0  0
   -1.2883    3.6129    2.7112 H   0  0  0  0  0  0  0  0  0  0  0  0
   -0.8558    1.9863    3.2605 H   0  0  0  0  0  0  0  0  0  0  0  0
   -5.7380   -1.2353    0.2128 H   0  0  0  0  0  0  0  0  0  0  0  0
   -5.2004   -0.1602   -1.1134 H   0  0  0  0  0  0  0  0  0  0  0  0
   -4.1343   -2.9913   -0.6606 H   0  0  0  0  0  0  0  0  0  0  0  0
   -5.3806   -2.5638   -1.8481 H   0  0  0  0  0  0  0  0  0  0  0  0
   -3.7415   -1.9183   -2.0108 H   0  0  0  0  0  0  0  0  0  0  0  0
  1  2  1  0  0  0  0
  2  3  1  0  0  0  0
  3  4  2  0  0  0  0
  4  5  2  0  0  0  0
  4  6  2  0  0  0  0
  6  7  1  0  0  0  0
  7  8  1  0  0  0  0
  4  9  1  0  0  0  0
  9 10  1  0  0  0  0
 10 11  1  0  0  0  0
 11 12  1  0  0  0  0
 12 13  2  0  0  0  0
 12 14  2  0  0  0  0
 14 15  1  0  0  0  0
 15 16  1  0  0  0  0
 12 17  2  0  0  0  0
 17 18  1  0  0  0  0
 18 19  1  0  0  0  0
  1 20  1  0  0  0  0
  1 21  1  0  0  0  0
  1 22  1  0  0  0  0
  2 23  1  0  0  0  0
  2 24  1  0  0  0  0
  7 25  1  0  0  0  0
  7 26  1  0  0  0  0
  8 27  1  0  0  0  0
  8 28  1  0  0  0  0
  8 29  1  0  0  0  0
 10 30  1  0  0  0  0
 10 31  1  0  0  0  0
 15 32  1  0  0  0  0
 15 33  1  0  0  0  0
 16 34  1  0  0  0  0
 16 35  1  0  0  0  0
 16 36  1  0  0  0  0
 18 37  1  0  0  0  0
 18 38  1  0  0  0  0
 19 39  1  0  0  0  0
 19 40  1  0  0  0  0
 19 41  1  0  0  0  0
M  END
