 xtb: 6.7.1 (edcfbbe)
          04092505203D

 41 40  0     0  0            999 V2000
    4.6628    0.2793   -1.8627 C   0  0  0  0  0  0  0  0  0  0  0  0
    4.4483    0.8269   -0.4671 C   0  0  0  0  0  0  0  0  0  0  0  0
    3.4110    0.1209    0.2365 O   0  0  0  0  0  0  0  0  0  0  0  0
    1.8842    0.2138   -0.1938 P   0  0  0  0  0  0  0  0  0  0  0  0
    1.3346    2.0115   -0.7259 S   0  0  0  0  0  0  0  0  0  0  0  0
    1.1240   -0.3332    1.0808 O   0  0  0  0  0  0  0  0  0  0  0  0
    1.6718   -1.4020    1.9004 C   0  0  0  0  0  0  0  0  0  0  0  0
    2.3440   -0.8276    3.1286 C   0  0  0  0  0  0  0  0  0  0  0  0
    1.7172   -1.3651   -1.6214 S   0  0  0  0  0  0  0  0  0  0  0  0
   -0.0593   -1.7258   -1.5085 C   0  0  0  0  0  0  0  0  0  0  0  0
   -1.1339   -0.2707   -1.6349 S   0  0  0  0  0  0  0  0  0  0  0  0
   -1.9305   -0.2052    0.3471 P   0  0  0  0  0  0  0  0  0  0  0  0
   -1.7355   -1.8545    1.3769 S   0  0  0  0  0  0  0  0  0  0  0  0
   -3.4418    0.2007    0.0533 O   0  0  0  0  0  0  0  0  0  0  0  0
   -4.3547   -0.7324   -0.5604 C   0  0  0  0  0  0  0  0  0  0  0  0
   -5.7545   -0.1681   -0.4289 C   0  0  0  0  0  0  0  0  0  0  0  0
   -1.4157    1.0737    1.1007 O   0  0  0  0  0  0  0  0  0  0  0  0
   -1.7777    2.4301    0.7268 C   0  0  0  0  0  0  0  0  0  0  0  0
   -1.1200    3.3610    1.7217 C   0  0  0  0  0  0  0  0  0  0  0  0
    3.7849    0.4745   -2.4777 H   0  0  0  0  0  0  0  0  0  0  0  0
    5.5218    0.7673   -2.3118 H   0  0  0  0  0  0  0  0  0  0  0  0
    4.8324   -0.7939   -1.8282 H   0  0  0  0  0  0  0  0  0  0  0  0
    4.1797    1.8874   -0.5057 H   0  0  0  0  0  0  0  0  0  0  0  0
    5.3295    0.6884    0.1607 H   0  0  0  0  0  0  0  0  0  0  0  0
    0.8086   -2.0142    2.1710 H   0  0  0  0  0  0  0  0  0  0  0  0
    2.3704   -1.9881    1.2989 H   0  0  0  0  0  0  0  0  0  0  0  0
    3.1948   -0.2141    2.8434 H   0  0  0  0  0  0  0  0  0  0  0  0
    1.6375   -0.2161    3.6837 H   0  0  0  0  0  0  0  0  0  0  0  0
    2.6828   -1.6444    3.7582 H   0  0  0  0  0  0  0  0  0  0  0  0
   -0.2822   -2.2351   -0.5660 H   0  0  0  0  0  0  0  0  0  0  0  0
   -0.2747   -2.3681   -2.3592 H   0  0  0  0  0  0  0  0  0  0  0  0
   -4.0676   -0.8518   -1.6088 H   0  0  0  0  0  0  0  0  0  0  0  0
   -4.2601   -1.6965   -0.0501 H   0  0  0  0  0  0  0  0  0  0  0  0
   -5.8159    0.7951   -0.9271 H   0  0  0  0  0  0  0  0  0  0  0  0
   -6.4578   -0.8555   -0.8871 H   0  0  0  0  0  0  0  0  0  0  0  0
   -6.0086   -0.0406    0.6196 H   0  0  0  0  0  0  0  0  0  0  0  0
   -1.4159    2.6161   -0.2881 H   0  0  0  0  0  0  0  0  0  0  0  0
   -2.8653    2.5114    0.7516 H   0  0  0  0  0  0  0  0  0  0  0  0
   -0.0391    3.2727    1.6495 H   0  0  0  0  0  0  0  0  0  0  0  0
   -1.4089    4.3818    1.4942 H   0  0  0  0  0  0  0  0  0  0  0  0
   -1.4305    3.1093    2.7318 H   0  0  0  0  0  0  0  0  0  0  0  0
  1  2  1  0  0  0  0
  2  3  1  0  0  0  0
  3  4  2  0  0  0  0
  4  5  2  0  0  0  0
  4  6  2  0  0  0  0
  6  7  1  0  0  0  0
  7  8  1  0  0  0  0
  4  9  1  0  0  0  0
  9 10  1  0  0  0  0
 10 11  1  0  0  0  0
 11 12  1  0  0  0  0
 12 13  2  0  0  0  0
 12 14  2  0  0  0  0
 14 15  1  0  0  0  0
 15 16  1  0  0  0  0
 12 17  2  0  0  0  0
 17 18  1  0  0  0  0
 18 19  1  0  0  0  0
  1 20  1  0  0  0  0
  1 21  1  0  0  0  0
  1 22  1  0  0  0  0
  2 23  1  0  0  0  0
  2 24  1  0  0  0  0
  7 25  1  0  0  0  0
  7 26  1  0  0  0  0
  8 27  1  0  0  0  0
  8 28  1  0  0  0  0
  8 29  1  0  0  0  0
 10 30  1  0  0  0  0
 10 31  1  0  0  0  0
 15 32  1  0  0  0  0
 15 33  1  0  0  0  0
 16 34  1  0  0  0  0
 16 35  1  0  0  0  0
 16 36  1  0  0  0  0
 18 37  1  0  0  0  0
 18 38  1  0  0  0  0
 19 39  1  0  0  0  0
 19 40  1  0  0  0  0
 19 41  1  0  0  0  0
M  END
