41
 xtb: 6.7.1 (edcfbbe)
C            5.69121867736162        0.62319625673214       -1.70373090530214
C            4.76400922216339        0.67105110410205       -0.51779201879765
O            3.69431999580275       -0.30856372451012       -0.76200757492695
P            2.38643999289201       -0.33116333934481        0.18061568303612
S            2.68650205110469       -0.20007904196018        2.10225964151011
O            1.65210478181855       -1.65433289209293       -0.35526498175154
C            2.14925395131779       -2.99337109959788        0.01072023383413
C            0.97590638427697       -3.93691411755594       -0.03978188165545
S            1.20156986799184        1.18549809282337       -0.69047661150073
C            0.09792258810357        1.60662788313632        0.71722507694182
S           -1.04986210723063        0.28940087909531        1.28687682096278
P           -2.68789160378392        0.62375954095488       -0.01118269301398
S           -2.36167468664225        0.56844939358779       -1.92886411459328
O           -3.27174659496712        1.99689325905894        0.58538500505442
C           -3.97993776857007        2.98722593326798       -0.24434371789350
C           -3.04379962640640        4.11540841144341       -0.59435812908099
O           -3.72691265045780       -0.45879539920366        0.57910515506405
C           -3.92263481414150       -1.78110272082492       -0.03595790725416
C           -2.75669768906373       -2.70528704182510        0.21543751949289
H            5.16810234385168        0.90426234424052       -2.62201117046053
H            6.50947370855597        1.33127298779939       -1.54112678206497
H            6.11879193139348       -0.37594916198927       -1.82600156118595
H            4.31340173078904        1.66219036779733       -0.39810709875594
H            5.26966865172636        0.39105195508164        0.41072885764279
H            2.92580013359095       -3.25779516957777       -0.71275041514647
H            2.58645934648898       -2.94833108468060        1.01300308949174
H            0.22351309360112       -3.66420464359288        0.70571404108824
H            0.51483632384295       -3.93772953697072       -1.03153696784314
H            1.32739590204630       -4.95047713058701        0.17723006824929
H           -0.46434865841078        2.49259533239521        0.40525860062173
H            0.71210055909179        1.86453210513549        1.58361581197935
H           -4.38078785705444        2.49426054252396       -1.13392917414378
H           -4.80923275304549        3.32279646352561        0.38249370672970
H           -2.21559212438429        3.75825213359911       -1.21335579820529
H           -3.59494574479372        4.87498264915741       -1.15854357960723
H           -2.64110792796056        4.58206224456260        0.30934481658477
H           -4.83623809189560       -2.14633297251089        0.43701384273762
H           -4.10554491275353       -1.63617222794862       -1.10464949088906
H           -2.55602521224074       -2.80562310601182        1.28605139890396
H           -3.00402935616104       -3.69477985508064       -0.18310817474518
H           -1.85159732953879       -2.35503067054320       -0.28908007737282
