 xtb: 6.7.1 (edcfbbe)
          04092505203D

 41 40  0     0  0            999 V2000
    5.2591   -0.5394   -1.3962 C   0  0  0  0  0  0  0  0  0  0  0  0
    4.4027   -0.8966   -0.1974 C   0  0  0  0  0  0  0  0  0  0  0  0
    3.5133    0.1816    0.1536 O   0  0  0  0  0  0  0  0  0  0  0  0
    2.0517    0.3448   -0.4575 P   0  0  0  0  0  0  0  0  0  0  0  0
    1.9098    0.5277   -2.3973 S   0  0  0  0  0  0  0  0  0  0  0  0
    1.5385    1.6107    0.3215 O   0  0  0  0  0  0  0  0  0  0  0  0
    1.5907    1.7337    1.7636 C   0  0  0  0  0  0  0  0  0  0  0  0
    2.7598    2.6010    2.1807 C   0  0  0  0  0  0  0  0  0  0  0  0
    1.0925   -1.3703    0.3650 S   0  0  0  0  0  0  0  0  0  0  0  0
   -0.1067   -1.7677   -0.9481 C   0  0  0  0  0  0  0  0  0  0  0  0
   -1.7852   -1.9283   -0.3147 S   0  0  0  0  0  0  0  0  0  0  0  0
   -2.0815    0.1143    0.2056 P   0  0  0  0  0  0  0  0  0  0  0  0
   -1.3530    1.4324   -1.0535 S   0  0  0  0  0  0  0  0  0  0  0  0
   -1.4399    0.3583    1.6245 O   0  0  0  0  0  0  0  0  0  0  0  0
   -1.4451   -0.5452    2.7628 C   0  0  0  0  0  0  0  0  0  0  0  0
   -2.8171   -1.0770    3.1142 C   0  0  0  0  0  0  0  0  0  0  0  0
   -3.6349    0.2043    0.5092 O   0  0  0  0  0  0  0  0  0  0  0  0
   -4.6819   -0.3148   -0.3309 C   0  0  0  0  0  0  0  0  0  0  0  0
   -4.6169    0.2137   -1.7484 C   0  0  0  0  0  0  0  0  0  0  0  0
    4.6346   -0.3819   -2.2729 H   0  0  0  0  0  0  0  0  0  0  0  0
    5.8175    0.3717   -1.2000 H   0  0  0  0  0  0  0  0  0  0  0  0
    5.9521   -1.3507   -1.5943 H   0  0  0  0  0  0  0  0  0  0  0  0
    5.0126   -1.0434    0.6961 H   0  0  0  0  0  0  0  0  0  0  0  0
    3.8151   -1.7986   -0.3895 H   0  0  0  0  0  0  0  0  0  0  0  0
    0.6341    2.1875    2.0326 H   0  0  0  0  0  0  0  0  0  0  0  0
    1.6598    0.7339    2.2026 H   0  0  0  0  0  0  0  0  0  0  0  0
    2.7405    2.7276    3.2585 H   0  0  0  0  0  0  0  0  0  0  0  0
    3.6962    2.1341    1.8873 H   0  0  0  0  0  0  0  0  0  0  0  0
    2.6883    3.5739    1.7020 H   0  0  0  0  0  0  0  0  0  0  0  0
    0.1553   -2.7344   -1.3706 H   0  0  0  0  0  0  0  0  0  0  0  0
   -0.0598   -0.9785   -1.7044 H   0  0  0  0  0  0  0  0  0  0  0  0
   -0.7534   -1.3634    2.5411 H   0  0  0  0  0  0  0  0  0  0  0  0
   -1.0392    0.0724    3.5656 H   0  0  0  0  0  0  0  0  0  0  0  0
   -3.5208   -0.2577    3.2346 H   0  0  0  0  0  0  0  0  0  0  0  0
   -3.1795   -1.7464    2.3371 H   0  0  0  0  0  0  0  0  0  0  0  0
   -2.7459   -1.6287    4.0467 H   0  0  0  0  0  0  0  0  0  0  0  0
   -4.6157   -1.4063   -0.3234 H   0  0  0  0  0  0  0  0  0  0  0  0
   -5.5961    0.0062    0.1714 H   0  0  0  0  0  0  0  0  0  0  0  0
   -4.6210    1.3013   -1.7491 H   0  0  0  0  0  0  0  0  0  0  0  0
   -3.7022   -0.1226   -2.2352 H   0  0  0  0  0  0  0  0  0  0  0  0
   -5.4710   -0.1504   -2.3101 H   0  0  0  0  0  0  0  0  0  0  0  0
  1  2  1  0  0  0  0
  2  3  1  0  0  0  0
  3  4  2  0  0  0  0
  4  5  2  0  0  0  0
  4  6  2  0  0  0  0
  6  7  1  0  0  0  0
  7  8  1  0  0  0  0
  4  9  1  0  0  0  0
  9 10  1  0  0  0  0
 10 11  1  0  0  0  0
 11 12  1  0  0  0  0
 12 13  2  0  0  0  0
 12 14  2  0  0  0  0
 14 15  1  0  0  0  0
 15 16  1  0  0  0  0
 12 17  2  0  0  0  0
 17 18  1  0  0  0  0
 18 19  1  0  0  0  0
  1 20  1  0  0  0  0
  1 21  1  0  0  0  0
  1 22  1  0  0  0  0
  2 23  1  0  0  0  0
  2 24  1  0  0  0  0
  7 25  1  0  0  0  0
  7 26  1  0  0  0  0
  8 27  1  0  0  0  0
  8 28  1  0  0  0  0
  8 29  1  0  0  0  0
 10 30  1  0  0  0  0
 10 31  1  0  0  0  0
 15 32  1  0  0  0  0
 15 33  1  0  0  0  0
 16 34  1  0  0  0  0
 16 35  1  0  0  0  0
 16 36  1  0  0  0  0
 18 37  1  0  0  0  0
 18 38  1  0  0  0  0
 19 39  1  0  0  0  0
 19 40  1  0  0  0  0
 19 41  1  0  0  0  0
M  END
