 xtb: 6.7.1 (edcfbbe)
          04092505213D

 41 40  0     0  0            999 V2000
    0.8306   -2.7232   -1.0456 C   0  0  0  0  0  0  0  0  0  0  0  0
    1.1584   -1.4577   -1.8103 C   0  0  0  0  0  0  0  0  0  0  0  0
    1.1130   -0.2748   -0.9677 O   0  0  0  0  0  0  0  0  0  0  0  0
    2.1285    0.0167    0.2084 P   0  0  0  0  0  0  0  0  0  0  0  0
    2.5137    1.9171    0.4958 S   0  0  0  0  0  0  0  0  0  0  0  0
    3.3857   -0.8622   -0.1871 O   0  0  0  0  0  0  0  0  0  0  0  0
    4.6144   -0.7751    0.5658 C   0  0  0  0  0  0  0  0  0  0  0  0
    5.7369   -1.2898   -0.3119 C   0  0  0  0  0  0  0  0  0  0  0  0
    1.3682   -0.9597    1.9389 S   0  0  0  0  0  0  0  0  0  0  0  0
   -0.1319    0.0377    2.1261 C   0  0  0  0  0  0  0  0  0  0  0  0
   -1.5843   -0.7154    1.3429 S   0  0  0  0  0  0  0  0  0  0  0  0
   -1.9359    0.5919   -0.3099 P   0  0  0  0  0  0  0  0  0  0  0  0
   -0.8635    2.2290   -0.3719 S   0  0  0  0  0  0  0  0  0  0  0  0
   -3.5048    0.8511   -0.1943 O   0  0  0  0  0  0  0  0  0  0  0  0
   -4.0440    1.6964    0.8394 C   0  0  0  0  0  0  0  0  0  0  0  0
   -5.4803    2.0152    0.4768 C   0  0  0  0  0  0  0  0  0  0  0  0
   -1.8794   -0.2973   -1.6066 O   0  0  0  0  0  0  0  0  0  0  0  0
   -2.8270   -1.3909   -1.7919 C   0  0  0  0  0  0  0  0  0  0  0  0
   -2.4363   -2.1544   -3.0391 C   0  0  0  0  0  0  0  0  0  0  0  0
    1.5974   -2.9245   -0.3006 H   0  0  0  0  0  0  0  0  0  0  0  0
   -0.1283   -2.6296   -0.5403 H   0  0  0  0  0  0  0  0  0  0  0  0
    0.7898   -3.5555   -1.7417 H   0  0  0  0  0  0  0  0  0  0  0  0
    0.4135   -1.2333   -2.5755 H   0  0  0  0  0  0  0  0  0  0  0  0
    2.1503   -1.5154   -2.2604 H   0  0  0  0  0  0  0  0  0  0  0  0
    4.7728    0.2695    0.8535 H   0  0  0  0  0  0  0  0  0  0  0  0
    4.4985   -1.3814    1.4676 H   0  0  0  0  0  0  0  0  0  0  0  0
    5.8277   -0.6742   -1.2025 H   0  0  0  0  0  0  0  0  0  0  0  0
    6.6672   -1.2501    0.2450 H   0  0  0  0  0  0  0  0  0  0  0  0
    5.5387   -2.3156   -0.6085 H   0  0  0  0  0  0  0  0  0  0  0  0
    0.0354    1.0281    1.6902 H   0  0  0  0  0  0  0  0  0  0  0  0
   -0.3379    0.1029    3.1907 H   0  0  0  0  0  0  0  0  0  0  0  0
   -3.9829    1.1558    1.7884 H   0  0  0  0  0  0  0  0  0  0  0  0
   -3.4332    2.6033    0.9022 H   0  0  0  0  0  0  0  0  0  0  0  0
   -6.0574    1.0981    0.4039 H   0  0  0  0  0  0  0  0  0  0  0  0
   -5.9085    2.6498    1.2456 H   0  0  0  0  0  0  0  0  0  0  0  0
   -5.5171    2.5337   -0.4770 H   0  0  0  0  0  0  0  0  0  0  0  0
   -2.7991   -2.0232   -0.9000 H   0  0  0  0  0  0  0  0  0  0  0  0
   -3.8216   -0.9539   -1.8902 H   0  0  0  0  0  0  0  0  0  0  0  0
   -2.3737   -1.4752   -3.8848 H   0  0  0  0  0  0  0  0  0  0  0  0
   -1.4783   -2.6469   -2.9078 H   0  0  0  0  0  0  0  0  0  0  0  0
   -3.1961   -2.9032   -3.2397 H   0  0  0  0  0  0  0  0  0  0  0  0
  1  2  1  0  0  0  0
  2  3  1  0  0  0  0
  3  4  2  0  0  0  0
  4  5  2  0  0  0  0
  4  6  2  0  0  0  0
  6  7  1  0  0  0  0
  7  8  1  0  0  0  0
  4  9  1  0  0  0  0
  9 10  1  0  0  0  0
 10 11  1  0  0  0  0
 11 12  1  0  0  0  0
 12 13  2  0  0  0  0
 12 14  2  0  0  0  0
 14 15  1  0  0  0  0
 15 16  1  0  0  0  0
 12 17  2  0  0  0  0
 17 18  1  0  0  0  0
 18 19  1  0  0  0  0
  1 20  1  0  0  0  0
  1 21  1  0  0  0  0
  1 22  1  0  0  0  0
  2 23  1  0  0  0  0
  2 24  1  0  0  0  0
  7 25  1  0  0  0  0
  7 26  1  0  0  0  0
  8 27  1  0  0  0  0
  8 28  1  0  0  0  0
  8 29  1  0  0  0  0
 10 30  1  0  0  0  0
 10 31  1  0  0  0  0
 15 32  1  0  0  0  0
 15 33  1  0  0  0  0
 16 34  1  0  0  0  0
 16 35  1  0  0  0  0
 16 36  1  0  0  0  0
 18 37  1  0  0  0  0
 18 38  1  0  0  0  0
 19 39  1  0  0  0  0
 19 40  1  0  0  0  0
 19 41  1  0  0  0  0
M  END
