 xtb: 6.7.1 (edcfbbe)
          04092505213D

 41 40  0     0  0            999 V2000
    2.5378    0.2826   -2.5168 C   0  0  0  0  0  0  0  0  0  0  0  0
    1.6819    1.2828   -1.7716 C   0  0  0  0  0  0  0  0  0  0  0  0
    1.0792    0.6911   -0.6012 O   0  0  0  0  0  0  0  0  0  0  0  0
    1.9585    0.3664    0.6843 P   0  0  0  0  0  0  0  0  0  0  0  0
    3.4611    1.5831    0.9983 S   0  0  0  0  0  0  0  0  0  0  0  0
    2.3620   -1.1533    0.4363 O   0  0  0  0  0  0  0  0  0  0  0  0
    3.2268   -1.8418    1.3629 C   0  0  0  0  0  0  0  0  0  0  0  0
    3.2839   -3.2952    0.9402 C   0  0  0  0  0  0  0  0  0  0  0  0
    0.5826    0.3397    2.2668 S   0  0  0  0  0  0  0  0  0  0  0  0
   -0.5195   -1.0932    1.8936 C   0  0  0  0  0  0  0  0  0  0  0  0
   -0.6484   -1.5567    0.1568 S   0  0  0  0  0  0  0  0  0  0  0  0
   -1.8133    0.0233   -0.6351 P   0  0  0  0  0  0  0  0  0  0  0  0
   -1.6537    0.2681   -2.5737 S   0  0  0  0  0  0  0  0  0  0  0  0
   -1.4356    1.2141    0.3417 O   0  0  0  0  0  0  0  0  0  0  0  0
   -2.3115    2.3207    0.6446 C   0  0  0  0  0  0  0  0  0  0  0  0
   -2.5142    3.2270   -0.5514 C   0  0  0  0  0  0  0  0  0  0  0  0
   -3.3139   -0.2655   -0.1572 O   0  0  0  0  0  0  0  0  0  0  0  0
   -4.2258   -1.0440   -0.9451 C   0  0  0  0  0  0  0  0  0  0  0  0
   -3.8646   -2.5157   -0.9390 C   0  0  0  0  0  0  0  0  0  0  0  0
    2.9067    0.7383   -3.4302 H   0  0  0  0  0  0  0  0  0  0  0  0
    3.3829   -0.0142   -1.8973 H   0  0  0  0  0  0  0  0  0  0  0  0
    1.9497   -0.5981   -2.7641 H   0  0  0  0  0  0  0  0  0  0  0  0
    0.8301    1.6085   -2.3718 H   0  0  0  0  0  0  0  0  0  0  0  0
    2.2724    2.1490   -1.4560 H   0  0  0  0  0  0  0  0  0  0  0  0
    4.2117   -1.3658    1.3305 H   0  0  0  0  0  0  0  0  0  0  0  0
    2.8219   -1.7314    2.3743 H   0  0  0  0  0  0  0  0  0  0  0  0
    3.7036   -3.3763   -0.0580 H   0  0  0  0  0  0  0  0  0  0  0  0
    3.9065   -3.8451    1.6380 H   0  0  0  0  0  0  0  0  0  0  0  0
    2.2835   -3.7189    0.9323 H   0  0  0  0  0  0  0  0  0  0  0  0
   -1.4945   -0.8147    2.2858 H   0  0  0  0  0  0  0  0  0  0  0  0
   -0.1286   -1.9700    2.4042 H   0  0  0  0  0  0  0  0  0  0  0  0
   -3.2641    1.9246    1.0022 H   0  0  0  0  0  0  0  0  0  0  0  0
   -1.7941    2.8359    1.4567 H   0  0  0  0  0  0  0  0  0  0  0  0
   -3.1309    4.0724   -0.2627 H   0  0  0  0  0  0  0  0  0  0  0  0
   -1.5563    3.5897   -0.9173 H   0  0  0  0  0  0  0  0  0  0  0  0
   -3.0072    2.6831   -1.3563 H   0  0  0  0  0  0  0  0  0  0  0  0
   -5.1976   -0.8643   -0.4832 H   0  0  0  0  0  0  0  0  0  0  0  0
   -4.2211   -0.6528   -1.9678 H   0  0  0  0  0  0  0  0  0  0  0  0
   -2.9039   -2.6634   -1.4318 H   0  0  0  0  0  0  0  0  0  0  0  0
   -3.7967   -2.8875    0.0798 H   0  0  0  0  0  0  0  0  0  0  0  0
   -4.6250   -3.0730   -1.4764 H   0  0  0  0  0  0  0  0  0  0  0  0
  1  2  1  0  0  0  0
  2  3  1  0  0  0  0
  3  4  1  0  0  0  0
  4  5  2  0  0  0  0
  4  6  2  0  0  0  0
  6  7  1  0  0  0  0
  7  8  1  0  0  0  0
  4  9  1  0  0  0  0
  9 10  1  0  0  0  0
 10 11  1  0  0  0  0
 11 12  1  0  0  0  0
 12 13  2  0  0  0  0
 12 14  1  0  0  0  0
 14 15  1  0  0  0  0
 15 16  1  0  0  0  0
 12 17  1  0  0  0  0
 17 18  1  0  0  0  0
 18 19  1  0  0  0  0
  1 20  1  0  0  0  0
  1 21  1  0  0  0  0
  1 22  1  0  0  0  0
  2 23  1  0  0  0  0
  2 24  1  0  0  0  0
  7 25  1  0  0  0  0
  7 26  1  0  0  0  0
  8 27  1  0  0  0  0
  8 28  1  0  0  0  0
  8 29  1  0  0  0  0
 10 30  1  0  0  0  0
 10 31  1  0  0  0  0
 15 32  1  0  0  0  0
 15 33  1  0  0  0  0
 16 34  1  0  0  0  0
 16 35  1  0  0  0  0
 16 36  1  0  0  0  0
 18 37  1  0  0  0  0
 18 38  1  0  0  0  0
 19 39  1  0  0  0  0
 19 40  1  0  0  0  0
 19 41  1  0  0  0  0
M  END
