  18
 
 C         -0.7345554846       -2.9892112652       -0.0062326757
 C          0.6490542643       -3.0229191889       -0.0053166023
 C          1.3727373828       -1.8425213295       -0.0022124401
 C          0.7225752631       -0.6126557793       -0.0001926201
 C         -0.6744305282       -0.5788336865       -0.0011244185
 C         -1.3920178950       -1.7717996131       -0.0039701207
 C         -1.5254810349        0.6615888575        0.0009633028
 F         -0.8916510971        1.8379952782        0.0015281984
 F         -2.3455198871        0.6899893242       -1.0723715092
 F         -2.3436324292        0.6875209217        1.0758179089
 C          1.5614574395        0.6372050467        0.0024846089
 F          2.8781302083        0.3730383631        0.0034005255
 F          1.3574190895        1.4155471424       -1.0790992878
 F          1.3552979604        1.4125074832        1.0858593740
 H         -1.3056381977       -3.9028148721       -0.0082562339
 H          1.1729005595       -3.9645354089       -0.0066962009
 H          2.4504212975       -1.8697576321       -0.0014582903
 H         -2.4700059022       -1.7298873759       -0.0044929754
          18
        -47.57996491
 C         -0.6921902402       -3.0126814194       -0.0047236502
 C          0.6911981956       -3.0128937241        0.0046588044
 C          1.3856164276       -1.8141241984        0.0123942032
 C          0.6995536181       -0.6058203642        0.0115370093
 C         -0.6996785982       -0.6056959405       -0.0120969840
 C         -1.3862101385       -1.8136917181       -0.0125925697
 C         -1.5009529147        0.6675884600       -0.0027830549
 F         -2.7762058016        0.4713499399       -0.3774371749
 F         -1.5712723432        1.2272631513        1.2240979498
 F         -1.0293072834        1.6198122497       -0.8267470191
 C          1.5010878685        0.6670570158        0.0026199519
 F          1.5722536211        1.2272012286       -1.2239927237
 F          1.0294728186        1.6192314859        0.8268334482
 F          2.7761495055        0.4704254636        0.3778142950
 H         -1.2391192368       -3.9410379067       -0.0068068314
 H          1.2379059368       -3.9414311826        0.0075462184
 H          2.4636712782       -1.8096558390        0.0246529725
 H         -2.4642353010       -1.8088125248       -0.0243600074
