 xtb: 6.7.1 (edcfbbe)
          04092505203D

 41 40  0     0  0            999 V2000
    5.7409   -0.3420   -0.1760 C   0  0  0  0  0  0  0  0  0  0  0  0
    4.3342   -0.7100   -0.6017 C   0  0  0  0  0  0  0  0  0  0  0  0
    3.4275    0.2387   -0.0037 O   0  0  0  0  0  0  0  0  0  0  0  0
    1.9292    0.3751   -0.5224 P   0  0  0  0  0  0  0  0  0  0  0  0
    1.7599    0.6564   -2.4496 S   0  0  0  0  0  0  0  0  0  0  0  0
    1.3957    1.5676    0.3543 O   0  0  0  0  0  0  0  0  0  0  0  0
    1.5613    1.6286    1.7933 C   0  0  0  0  0  0  0  0  0  0  0  0
    2.7614    2.4751    2.1624 C   0  0  0  0  0  0  0  0  0  0  0  0
    1.0839   -1.4332    0.2157 S   0  0  0  0  0  0  0  0  0  0  0  0
   -0.1425   -1.7885   -1.0815 C   0  0  0  0  0  0  0  0  0  0  0  0
   -1.8265   -1.9134   -0.4490 S   0  0  0  0  0  0  0  0  0  0  0  0
   -2.0583    0.1065    0.1782 P   0  0  0  0  0  0  0  0  0  0  0  0
   -1.4980    1.4442   -1.1426 S   0  0  0  0  0  0  0  0  0  0  0  0
   -1.2719    0.2745    1.5379 O   0  0  0  0  0  0  0  0  0  0  0  0
   -1.7128   -0.1931    2.8407 C   0  0  0  0  0  0  0  0  0  0  0  0
   -1.7476   -1.7036    2.9398 C   0  0  0  0  0  0  0  0  0  0  0  0
   -3.5699    0.1924    0.6547 O   0  0  0  0  0  0  0  0  0  0  0  0
   -4.6534    0.4916   -0.2439 C   0  0  0  0  0  0  0  0  0  0  0  0
   -4.8645   -0.5965   -1.2760 C   0  0  0  0  0  0  0  0  0  0  0  0
    5.9844    0.6598   -0.5190 H   0  0  0  0  0  0  0  0  0  0  0  0
    5.8237   -0.3759    0.9064 H   0  0  0  0  0  0  0  0  0  0  0  0
    6.4393   -1.0485   -0.6122 H   0  0  0  0  0  0  0  0  0  0  0  0
    4.0591   -1.7094   -0.2538 H   0  0  0  0  0  0  0  0  0  0  0  0
    4.2166   -0.6630   -1.6893 H   0  0  0  0  0  0  0  0  0  0  0  0
    0.6307    2.0750    2.1495 H   0  0  0  0  0  0  0  0  0  0  0  0
    1.6557    0.6097    2.1797 H   0  0  0  0  0  0  0  0  0  0  0  0
    2.6642    3.4656    1.7263 H   0  0  0  0  0  0  0  0  0  0  0  0
    2.8138    2.5613    3.2433 H   0  0  0  0  0  0  0  0  0  0  0  0
    3.6741    2.0169    1.7915 H   0  0  0  0  0  0  0  0  0  0  0  0
    0.0924   -2.7596   -1.5098 H   0  0  0  0  0  0  0  0  0  0  0  0
   -0.0784   -0.9998   -1.8370 H   0  0  0  0  0  0  0  0  0  0  0  0
   -0.9712    0.2336    3.5181 H   0  0  0  0  0  0  0  0  0  0  0  0
   -2.6948    0.2379    3.0418 H   0  0  0  0  0  0  0  0  0  0  0  0
   -0.7980   -2.1266    2.6190 H   0  0  0  0  0  0  0  0  0  0  0  0
   -1.9307   -1.9814    3.9731 H   0  0  0  0  0  0  0  0  0  0  0  0
   -2.5418   -2.1101    2.3180 H   0  0  0  0  0  0  0  0  0  0  0  0
   -5.5151    0.5930    0.4175 H   0  0  0  0  0  0  0  0  0  0  0  0
   -4.4415    1.4479   -0.7318 H   0  0  0  0  0  0  0  0  0  0  0  0
   -4.0237   -0.6213   -1.9677 H   0  0  0  0  0  0  0  0  0  0  0  0
   -4.9516   -1.5668   -0.7939 H   0  0  0  0  0  0  0  0  0  0  0  0
   -5.7709   -0.3875   -1.8350 H   0  0  0  0  0  0  0  0  0  0  0  0
  1  2  1  0  0  0  0
  2  3  1  0  0  0  0
  3  4  2  0  0  0  0
  4  5  2  0  0  0  0
  4  6  2  0  0  0  0
  6  7  1  0  0  0  0
  7  8  1  0  0  0  0
  4  9  1  0  0  0  0
  9 10  1  0  0  0  0
 10 11  1  0  0  0  0
 11 12  1  0  0  0  0
 12 13  2  0  0  0  0
 12 14  2  0  0  0  0
 14 15  1  0  0  0  0
 15 16  1  0  0  0  0
 12 17  2  0  0  0  0
 17 18  1  0  0  0  0
 18 19  1  0  0  0  0
  1 20  1  0  0  0  0
  1 21  1  0  0  0  0
  1 22  1  0  0  0  0
  2 23  1  0  0  0  0
  2 24  1  0  0  0  0
  7 25  1  0  0  0  0
  7 26  1  0  0  0  0
  8 27  1  0  0  0  0
  8 28  1  0  0  0  0
  8 29  1  0  0  0  0
 10 30  1  0  0  0  0
 10 31  1  0  0  0  0
 15 32  1  0  0  0  0
 15 33  1  0  0  0  0
 16 34  1  0  0  0  0
 16 35  1  0  0  0  0
 16 36  1  0  0  0  0
 18 37  1  0  0  0  0
 18 38  1  0  0  0  0
 19 39  1  0  0  0  0
 19 40  1  0  0  0  0
 19 41  1  0  0  0  0
M  END
