 xtb: 6.7.1 (edcfbbe)
          04092505203D

 41 40  0     0  0            999 V2000
    3.3915   -0.5756   -2.5623 C   0  0  0  0  0  0  0  0  0  0  0  0
    1.9676   -0.1128   -2.3431 C   0  0  0  0  0  0  0  0  0  0  0  0
    1.4862   -0.4727   -1.0348 O   0  0  0  0  0  0  0  0  0  0  0  0
    2.0715    0.1831    0.2847 P   0  0  0  0  0  0  0  0  0  0  0  0
    2.8111    1.9904    0.1795 S   0  0  0  0  0  0  0  0  0  0  0  0
    3.1248   -0.9424    0.7044 O   0  0  0  0  0  0  0  0  0  0  0  0
    4.1657   -0.6974    1.6625 C   0  0  0  0  0  0  0  0  0  0  0  0
    3.6215   -0.5514    3.0696 C   0  0  0  0  0  0  0  0  0  0  0  0
    0.4472   -0.1118    1.6056 S   0  0  0  0  0  0  0  0  0  0  0  0
   -0.0708   -1.7688    1.0948 C   0  0  0  0  0  0  0  0  0  0  0  0
   -1.0567   -1.8445   -0.4452 S   0  0  0  0  0  0  0  0  0  0  0  0
   -1.8880    0.0901   -0.5452 P   0  0  0  0  0  0  0  0  0  0  0  0
   -0.8500    1.6764   -1.0567 S   0  0  0  0  0  0  0  0  0  0  0  0
   -2.5804    0.1699    0.8930 O   0  0  0  0  0  0  0  0  0  0  0  0
   -2.7778    1.4068    1.5958 C   0  0  0  0  0  0  0  0  0  0  0  0
   -3.9665    2.1635    1.0393 C   0  0  0  0  0  0  0  0  0  0  0  0
   -3.0119   -0.0957   -1.6458 O   0  0  0  0  0  0  0  0  0  0  0  0
   -3.8646   -1.2493   -1.8451 C   0  0  0  0  0  0  0  0  0  0  0  0
   -4.7620   -1.5264   -0.6577 C   0  0  0  0  0  0  0  0  0  0  0  0
    3.6818   -0.3659   -3.5869 H   0  0  0  0  0  0  0  0  0  0  0  0
    4.0593   -0.0404   -1.8880 H   0  0  0  0  0  0  0  0  0  0  0  0
    3.4724   -1.6424   -2.3708 H   0  0  0  0  0  0  0  0  0  0  0  0
    1.2670   -0.6042   -3.0209 H   0  0  0  0  0  0  0  0  0  0  0  0
    1.8810    0.9732   -2.4557 H   0  0  0  0  0  0  0  0  0  0  0  0
    4.8200   -1.5652    1.5692 H   0  0  0  0  0  0  0  0  0  0  0  0
    4.7013    0.2097    1.3647 H   0  0  0  0  0  0  0  0  0  0  0  0
    3.0305   -1.4213    3.3438 H   0  0  0  0  0  0  0  0  0  0  0  0
    4.4487   -0.4444    3.7639 H   0  0  0  0  0  0  0  0  0  0  0  0
    2.9920    0.3362    3.1319 H   0  0  0  0  0  0  0  0  0  0  0  0
   -0.6833   -2.1484    1.9091 H   0  0  0  0  0  0  0  0  0  0  0  0
    0.8049   -2.3931    0.9285 H   0  0  0  0  0  0  0  0  0  0  0  0
   -2.9309    1.1063    2.6331 H   0  0  0  0  0  0  0  0  0  0  0  0
   -1.8654    2.0077    1.5184 H   0  0  0  0  0  0  0  0  0  0  0  0
   -4.8681    1.5622    1.1176 H   0  0  0  0  0  0  0  0  0  0  0  0
   -4.0993    3.0869    1.5938 H   0  0  0  0  0  0  0  0  0  0  0  0
   -3.7875    2.4022   -0.0091 H   0  0  0  0  0  0  0  0  0  0  0  0
   -4.4419   -0.9793   -2.7312 H   0  0  0  0  0  0  0  0  0  0  0  0
   -3.2303   -2.1109   -2.0665 H   0  0  0  0  0  0  0  0  0  0  0  0
   -5.4206   -2.3546   -0.9005 H   0  0  0  0  0  0  0  0  0  0  0  0
   -4.1664   -1.7889    0.2133 H   0  0  0  0  0  0  0  0  0  0  0  0
   -5.3612   -0.6497   -0.4263 H   0  0  0  0  0  0  0  0  0  0  0  0
  1  2  1  0  0  0  0
  2  3  1  0  0  0  0
  3  4  2  0  0  0  0
  4  5  2  0  0  0  0
  4  6  2  0  0  0  0
  6  7  1  0  0  0  0
  7  8  1  0  0  0  0
  4  9  1  0  0  0  0
  9 10  1  0  0  0  0
 10 11  1  0  0  0  0
 11 12  1  0  0  0  0
 12 13  2  0  0  0  0
 12 14  1  0  0  0  0
 14 15  1  0  0  0  0
 15 16  1  0  0  0  0
 12 17  2  0  0  0  0
 17 18  1  0  0  0  0
 18 19  1  0  0  0  0
  1 20  1  0  0  0  0
  1 21  1  0  0  0  0
  1 22  1  0  0  0  0
  2 23  1  0  0  0  0
  2 24  1  0  0  0  0
  7 25  1  0  0  0  0
  7 26  1  0  0  0  0
  8 27  1  0  0  0  0
  8 28  1  0  0  0  0
  8 29  1  0  0  0  0
 10 30  1  0  0  0  0
 10 31  1  0  0  0  0
 15 32  1  0  0  0  0
 15 33  1  0  0  0  0
 16 34  1  0  0  0  0
 16 35  1  0  0  0  0
 16 36  1  0  0  0  0
 18 37  1  0  0  0  0
 18 38  1  0  0  0  0
 19 39  1  0  0  0  0
 19 40  1  0  0  0  0
 19 41  1  0  0  0  0
M  END
