 xtb: 6.7.1 (edcfbbe)
          04092507313D

 38 37  0     0  0            999 V2000
    3.2419   -1.3347    1.8086 C   0  0  0  0  0  0  0  0  0  0  0  0
    2.9355   -2.0272    0.4922 C   0  0  0  0  0  0  0  0  0  0  0  0
    2.6808   -1.0402   -0.5267 O   0  0  0  0  0  0  0  0  0  0  0  0
    1.5166   -1.0004   -1.1331 C   0  0  0  0  0  0  0  0  0  0  0  0
    0.5890   -1.7571   -0.9129 O   0  0  0  0  0  0  0  0  0  0  0  0
    1.4531    0.1210   -2.1490 C   0  0  0  0  0  0  0  0  0  0  0  0
    0.2756    1.0498   -1.8412 C   0  0  0  0  0  0  0  0  0  0  0  0
    0.2128    1.8271   -2.6075 H   0  0  0  0  0  0  0  0  0  0  0  0
    0.3992    1.7058   -0.4806 C   0  0  0  0  0  0  0  0  0  0  0  0
   -0.5352    1.7490    0.3022 O   0  0  0  0  0  0  0  0  0  0  0  0
    1.5844    2.1803   -0.2466 O   0  0  0  0  0  0  0  0  0  0  0  0
    1.8479    2.7555    1.0547 C   0  0  0  0  0  0  0  0  0  0  0  0
    3.3468    2.9331    1.1812 C   0  0  0  0  0  0  0  0  0  0  0  0
   -1.3447    0.2046   -1.8930 S   0  0  0  0  0  0  0  0  0  0  0  0
   -1.6425   -0.4467    0.1038 P   0  0  0  0  0  0  0  0  0  0  0  0
   -0.4718   -0.7615    1.6625 S   0  0  0  0  0  0  0  0  0  0  0  0
   -2.9857    0.3147    0.5528 O   0  0  0  0  0  0  0  0  0  0  0  0
   -3.0692    1.3662    1.5108 C   0  0  0  0  0  0  0  0  0  0  0  0
   -2.3159   -1.8023   -0.4217 O   0  0  0  0  0  0  0  0  0  0  0  0
   -2.8437   -2.7818    0.4730 C   0  0  0  0  0  0  0  0  0  0  0  0
    2.3614   -0.8022    2.1627 H   0  0  0  0  0  0  0  0  0  0  0  0
    3.5152   -2.0807    2.5470 H   0  0  0  0  0  0  0  0  0  0  0  0
    4.0635   -0.6363    1.6813 H   0  0  0  0  0  0  0  0  0  0  0  0
    2.0584   -2.6739    0.5830 H   0  0  0  0  0  0  0  0  0  0  0  0
    3.7930   -2.6034    0.1384 H   0  0  0  0  0  0  0  0  0  0  0  0
    1.2962   -0.3185   -3.1345 H   0  0  0  0  0  0  0  0  0  0  0  0
    2.3868    0.6815   -2.1237 H   0  0  0  0  0  0  0  0  0  0  0  0
    1.3161    3.7087    1.1180 H   0  0  0  0  0  0  0  0  0  0  0  0
    1.4453    2.0793    1.8154 H   0  0  0  0  0  0  0  0  0  0  0  0
    3.7097    3.6017    0.4070 H   0  0  0  0  0  0  0  0  0  0  0  0
    3.5744    3.3524    2.1552 H   0  0  0  0  0  0  0  0  0  0  0  0
    3.8441    1.9731    1.0809 H   0  0  0  0  0  0  0  0  0  0  0  0
   -4.0700    1.3050    1.9323 H   0  0  0  0  0  0  0  0  0  0  0  0
   -2.9113    2.3242    1.0190 H   0  0  0  0  0  0  0  0  0  0  0  0
   -2.3151    1.2253    2.2873 H   0  0  0  0  0  0  0  0  0  0  0  0
   -2.9767   -3.6821   -0.1216 H   0  0  0  0  0  0  0  0  0  0  0  0
   -3.7969   -2.4411    0.8783 H   0  0  0  0  0  0  0  0  0  0  0  0
   -2.1400   -2.9658    1.2882 H   0  0  0  0  0  0  0  0  0  0  0  0
  1  2  1  0  0  0  0
  2  3  1  0  0  0  0
  3  4  4  0  0  0  0
  4  5  2  0  0  0  0
  4  6  1  0  0  0  0
  6  7  1  0  0  0  0
  7  8  1  0  0  0  0
  7  9  1  0  0  0  0
  9 10  2  0  0  0  0
  9 11  4  0  0  0  0
 11 12  1  0  0  0  0
 12 13  1  0  0  0  0
  7 14  1  0  0  0  0
 14 15  1  0  0  0  0
 15 16  2  0  0  0  0
 15 17  1  0  0  0  0
 17 18  1  0  0  0  0
 15 19  1  0  0  0  0
 19 20  1  0  0  0  0
  1 21  1  0  0  0  0
  1 22  1  0  0  0  0
  1 23  1  0  0  0  0
  2 24  1  0  0  0  0
  2 25  1  0  0  0  0
  6 26  1  0  0  0  0
  6 27  1  0  0  0  0
 12 28  1  0  0  0  0
 12 29  1  0  0  0  0
 13 30  1  0  0  0  0
 13 31  1  0  0  0  0
 13 32  1  0  0  0  0
 18 33  1  0  0  0  0
 18 34  1  0  0  0  0
 18 35  1  0  0  0  0
 20 36  1  0  0  0  0
 20 37  1  0  0  0  0
 20 38  1  0  0  0  0
M  END
