 xtb: 6.7.1 (edcfbbe)
          04092514023D

 41 40  0     0  0            999 V2000
    4.1288   -1.2197   -2.7521 C   0  0  0  0  0  0  0  0  0  0  0  0
    4.3536   -1.5685   -1.2949 C   0  0  0  0  0  0  0  0  0  0  0  0
    3.1200   -1.6877   -0.5644 O   0  0  0  0  0  0  0  0  0  0  0  0
    2.2288   -0.4422   -0.1257 P   0  0  0  0  0  0  0  0  0  0  0  0
    3.2628    1.1629    0.3324 S   0  0  0  0  0  0  0  0  0  0  0  0
    1.3620   -1.0923    1.0318 O   0  0  0  0  0  0  0  0  0  0  0  0
    1.8333   -1.1692    2.3960 C   0  0  0  0  0  0  0  0  0  0  0  0
    1.0644   -0.1933    3.2646 C   0  0  0  0  0  0  0  0  0  0  0  0
    0.7495   -0.2890   -1.6145 S   0  0  0  0  0  0  0  0  0  0  0  0
    0.1889    1.3980   -1.2384 C   0  0  0  0  0  0  0  0  0  0  0  0
   -0.5143    1.5926    0.4197 S   0  0  0  0  0  0  0  0  0  0  0  0
   -2.2550    0.4277    0.1607 P   0  0  0  0  0  0  0  0  0  0  0  0
   -3.0430    0.3481   -1.6367 S   0  0  0  0  0  0  0  0  0  0  0  0
   -3.2087    0.9243    1.3353 O   0  0  0  0  0  0  0  0  0  0  0  0
   -3.5884    2.2824    1.6262 C   0  0  0  0  0  0  0  0  0  0  0  0
   -4.2870    2.9723    0.4721 C   0  0  0  0  0  0  0  0  0  0  0  0
   -1.8153   -0.9721    0.7596 O   0  0  0  0  0  0  0  0  0  0  0  0
   -2.4185   -2.2325    0.3968 C   0  0  0  0  0  0  0  0  0  0  0  0
   -1.5006   -3.0175   -0.5193 C   0  0  0  0  0  0  0  0  0  0  0  0
    5.0789   -1.2567   -3.2762 H   0  0  0  0  0  0  0  0  0  0  0  0
    3.4380   -1.9236   -3.2088 H   0  0  0  0  0  0  0  0  0  0  0  0
    3.7162   -0.2157   -2.8387 H   0  0  0  0  0  0  0  0  0  0  0  0
    4.9729   -0.8081   -0.8079 H   0  0  0  0  0  0  0  0  0  0  0  0
    4.8170   -2.5503   -1.1854 H   0  0  0  0  0  0  0  0  0  0  0  0
    1.6600   -2.2019    2.7036 H   0  0  0  0  0  0  0  0  0  0  0  0
    2.9060   -0.9549    2.4221 H   0  0  0  0  0  0  0  0  0  0  0  0
    1.2799    0.8294    2.9616 H   0  0  0  0  0  0  0  0  0  0  0  0
   -0.0038   -0.3684    3.1615 H   0  0  0  0  0  0  0  0  0  0  0  0
    1.3558   -0.3281    4.3013 H   0  0  0  0  0  0  0  0  0  0  0  0
   -0.5652    1.6348   -1.9887 H   0  0  0  0  0  0  0  0  0  0  0  0
    1.0317    2.0865   -1.2868 H   0  0  0  0  0  0  0  0  0  0  0  0
   -4.2541    2.1794    2.4855 H   0  0  0  0  0  0  0  0  0  0  0  0
   -2.6897    2.8321    1.9192 H   0  0  0  0  0  0  0  0  0  0  0  0
   -5.1510    2.3969    0.1487 H   0  0  0  0  0  0  0  0  0  0  0  0
   -4.6129    3.9567    0.7939 H   0  0  0  0  0  0  0  0  0  0  0  0
   -3.6094    3.0824   -0.3726 H   0  0  0  0  0  0  0  0  0  0  0  0
   -2.5751   -2.7508    1.3446 H   0  0  0  0  0  0  0  0  0  0  0  0
   -3.3832   -2.0474   -0.0843 H   0  0  0  0  0  0  0  0  0  0  0  0
   -0.5134   -3.1055   -0.0725 H   0  0  0  0  0  0  0  0  0  0  0  0
   -1.9160   -4.0077   -0.6779 H   0  0  0  0  0  0  0  0  0  0  0  0
   -1.4044   -2.5124   -1.4784 H   0  0  0  0  0  0  0  0  0  0  0  0
  1  2  1  0  0  0  0
  2  3  1  0  0  0  0
  3  4  2  0  0  0  0
  4  5  2  0  0  0  0
  4  6  2  0  0  0  0
  6  7  1  0  0  0  0
  7  8  1  0  0  0  0
  4  9  1  0  0  0  0
  9 10  1  0  0  0  0
 10 11  1  0  0  0  0
 11 12  1  0  0  0  0
 12 13  2  0  0  0  0
 12 14  2  0  0  0  0
 14 15  1  0  0  0  0
 15 16  1  0  0  0  0
 12 17  2  0  0  0  0
 17 18  1  0  0  0  0
 18 19  1  0  0  0  0
  1 20  1  0  0  0  0
  1 21  1  0  0  0  0
  1 22  1  0  0  0  0
  2 23  1  0  0  0  0
  2 24  1  0  0  0  0
  7 25  1  0  0  0  0
  7 26  1  0  0  0  0
  8 27  1  0  0  0  0
  8 28  1  0  0  0  0
  8 29  1  0  0  0  0
 10 30  1  0  0  0  0
 10 31  1  0  0  0  0
 15 32  1  0  0  0  0
 15 33  1  0  0  0  0
 16 34  1  0  0  0  0
 16 35  1  0  0  0  0
 16 36  1  0  0  0  0
 18 37  1  0  0  0  0
 18 38  1  0  0  0  0
 19 39  1  0  0  0  0
 19 40  1  0  0  0  0
 19 41  1  0  0  0  0
M  END
