 xtb: 6.7.1 (edcfbbe)
          04092507313D

 38 37  0     0  0            999 V2000
    4.8362   -3.1356   -1.7589 C   0  0  0  0  0  0  0  0  0  0  0  0
    4.9484   -2.1022   -0.6495 C   0  0  0  0  0  0  0  0  0  0  0  0
    3.7476   -2.0720    0.1474 O   0  0  0  0  0  0  0  0  0  0  0  0
    2.7598   -1.2866   -0.2261 C   0  0  0  0  0  0  0  0  0  0  0  0
    2.7851   -0.5549   -1.1947 O   0  0  0  0  0  0  0  0  0  0  0  0
    1.5824   -1.3867    0.7213 C   0  0  0  0  0  0  0  0  0  0  0  0
    0.4198   -0.6058    0.1401 C   0  0  0  0  0  0  0  0  0  0  0  0
    0.0481   -1.0513   -0.7890 H   0  0  0  0  0  0  0  0  0  0  0  0
    0.7354    0.8495   -0.1324 C   0  0  0  0  0  0  0  0  0  0  0  0
    0.1208    1.4970   -0.9552 O   0  0  0  0  0  0  0  0  0  0  0  0
    1.6531    1.3321    0.6735 O   0  0  0  0  0  0  0  0  0  0  0  0
    1.9835    2.7317    0.5645 C   0  0  0  0  0  0  0  0  0  0  0  0
    0.9557    3.5959    1.2768 C   0  0  0  0  0  0  0  0  0  0  0  0
   -0.9849   -0.5287    1.3019 S   0  0  0  0  0  0  0  0  0  0  0  0
   -2.4334    0.2151   -0.0742 P   0  0  0  0  0  0  0  0  0  0  0  0
   -2.3151   -0.4522   -1.9077 S   0  0  0  0  0  0  0  0  0  0  0  0
   -3.7909   -0.1758    0.6742 O   0  0  0  0  0  0  0  0  0  0  0  0
   -4.2272   -1.5385    0.7481 C   0  0  0  0  0  0  0  0  0  0  0  0
   -2.4781    1.7886    0.0744 O   0  0  0  0  0  0  0  0  0  0  0  0
   -2.8004    2.4160    1.3339 C   0  0  0  0  0  0  0  0  0  0  0  0
    4.0452   -2.8565   -2.4517 H   0  0  0  0  0  0  0  0  0  0  0  0
    5.7752   -3.1852   -2.3000 H   0  0  0  0  0  0  0  0  0  0  0  0
    4.6114   -4.1122   -1.3395 H   0  0  0  0  0  0  0  0  0  0  0  0
    5.1174   -1.1046   -1.0648 H   0  0  0  0  0  0  0  0  0  0  0  0
    5.7368   -2.3613    0.0571 H   0  0  0  0  0  0  0  0  0  0  0  0
    1.8803   -0.9721    1.6862 H   0  0  0  0  0  0  0  0  0  0  0  0
    1.3160   -2.4333    0.8664 H   0  0  0  0  0  0  0  0  0  0  0  0
    2.9661    2.8073    1.0300 H   0  0  0  0  0  0  0  0  0  0  0  0
    2.0429    2.9898   -0.4966 H   0  0  0  0  0  0  0  0  0  0  0  0
    0.8513    3.2788    2.3109 H   0  0  0  0  0  0  0  0  0  0  0  0
    1.2789    4.6310    1.2482 H   0  0  0  0  0  0  0  0  0  0  0  0
   -0.0057    3.5131    0.7749 H   0  0  0  0  0  0  0  0  0  0  0  0
   -3.6281   -2.0766    1.4818 H   0  0  0  0  0  0  0  0  0  0  0  0
   -4.1376   -2.0134   -0.2300 H   0  0  0  0  0  0  0  0  0  0  0  0
   -5.2683   -1.4957    1.0571 H   0  0  0  0  0  0  0  0  0  0  0  0
   -2.1658    2.0157    2.1255 H   0  0  0  0  0  0  0  0  0  0  0  0
   -3.8473    2.2406    1.5719 H   0  0  0  0  0  0  0  0  0  0  0  0
   -2.6109    3.4756    1.1819 H   0  0  0  0  0  0  0  0  0  0  0  0
  1  2  1  0  0  0  0
  2  3  1  0  0  0  0
  3  4  1  0  0  0  0
  4  5  2  0  0  0  0
  4  6  1  0  0  0  0
  6  7  1  0  0  0  0
  7  8  1  0  0  0  0
  7  9  1  0  0  0  0
  9 10  2  0  0  0  0
  9 11  4  0  0  0  0
 11 12  1  0  0  0  0
 12 13  1  0  0  0  0
  7 14  1  0  0  0  0
 14 15  1  0  0  0  0
 15 16  2  0  0  0  0
 15 17  2  0  0  0  0
 17 18  1  0  0  0  0
 15 19  2  0  0  0  0
 19 20  1  0  0  0  0
  1 21  1  0  0  0  0
  1 22  1  0  0  0  0
  1 23  1  0  0  0  0
  2 24  1  0  0  0  0
  2 25  1  0  0  0  0
  6 26  1  0  0  0  0
  6 27  1  0  0  0  0
 12 28  1  0  0  0  0
 12 29  1  0  0  0  0
 13 30  1  0  0  0  0
 13 31  1  0  0  0  0
 13 32  1  0  0  0  0
 18 33  1  0  0  0  0
 18 34  1  0  0  0  0
 18 35  1  0  0  0  0
 20 36  1  0  0  0  0
 20 37  1  0  0  0  0
 20 38  1  0  0  0  0
M  END
