 xtb: 6.7.1 (edcfbbe)
          04092505203D

 41 40  0     0  0            999 V2000
    3.1820    0.0040   -2.8813 C   0  0  0  0  0  0  0  0  0  0  0  0
    1.8314    0.4248   -2.3442 C   0  0  0  0  0  0  0  0  0  0  0  0
    1.3664   -0.4746   -1.3228 O   0  0  0  0  0  0  0  0  0  0  0  0
    2.0415   -0.5565    0.1090 P   0  0  0  0  0  0  0  0  0  0  0  0
    2.7429    1.1422    0.8058 S   0  0  0  0  0  0  0  0  0  0  0  0
    3.0941   -1.7205   -0.1492 O   0  0  0  0  0  0  0  0  0  0  0  0
    3.7187   -2.5421    0.8546 C   0  0  0  0  0  0  0  0  0  0  0  0
    4.3568   -1.7406    1.9700 C   0  0  0  0  0  0  0  0  0  0  0  0
    0.5725   -1.5312    1.2592 S   0  0  0  0  0  0  0  0  0  0  0  0
   -0.1562   -0.1148    2.1482 C   0  0  0  0  0  0  0  0  0  0  0  0
   -1.9256    0.0597    1.8383 S   0  0  0  0  0  0  0  0  0  0  0  0
   -1.8066    0.7308   -0.1770 P   0  0  0  0  0  0  0  0  0  0  0  0
   -0.5270    2.1751   -0.5005 S   0  0  0  0  0  0  0  0  0  0  0  0
   -3.3213    1.0794   -0.4977 O   0  0  0  0  0  0  0  0  0  0  0  0
   -3.9607    2.2293    0.0952 C   0  0  0  0  0  0  0  0  0  0  0  0
   -5.2424    2.4931   -0.6683 C   0  0  0  0  0  0  0  0  0  0  0  0
   -1.5313   -0.5292   -1.0758 O   0  0  0  0  0  0  0  0  0  0  0  0
   -2.3279   -1.7421   -1.0374 C   0  0  0  0  0  0  0  0  0  0  0  0
   -3.3949   -1.7182   -2.1113 C   0  0  0  0  0  0  0  0  0  0  0  0
    3.4644    0.6601   -3.6986 H   0  0  0  0  0  0  0  0  0  0  0  0
    3.9278    0.0777   -2.0904 H   0  0  0  0  0  0  0  0  0  0  0  0
    3.1421   -1.0236   -3.2327 H   0  0  0  0  0  0  0  0  0  0  0  0
    1.0508    0.3817   -3.1056 H   0  0  0  0  0  0  0  0  0  0  0  0
    1.8718    1.4373   -1.9273 H   0  0  0  0  0  0  0  0  0  0  0  0
    2.9621   -3.2241    1.2523 H   0  0  0  0  0  0  0  0  0  0  0  0
    4.4655   -3.1056    0.2922 H   0  0  0  0  0  0  0  0  0  0  0  0
    4.8814   -2.4136    2.6405 H   0  0  0  0  0  0  0  0  0  0  0  0
    5.0589   -1.0156    1.5652 H   0  0  0  0  0  0  0  0  0  0  0  0
    3.5950   -1.2015    2.5314 H   0  0  0  0  0  0  0  0  0  0  0  0
    0.3703    0.7966    1.8493 H   0  0  0  0  0  0  0  0  0  0  0  0
   -0.0531   -0.2968    3.2148 H   0  0  0  0  0  0  0  0  0  0  0  0
   -4.1589    2.0037    1.1463 H   0  0  0  0  0  0  0  0  0  0  0  0
   -3.2727    3.0788    0.0345 H   0  0  0  0  0  0  0  0  0  0  0  0
   -5.7409    3.3548   -0.2368 H   0  0  0  0  0  0  0  0  0  0  0  0
   -5.0206    2.6937   -1.7127 H   0  0  0  0  0  0  0  0  0  0  0  0
   -5.8983    1.6298   -0.6046 H   0  0  0  0  0  0  0  0  0  0  0  0
   -1.6042   -2.5425   -1.2045 H   0  0  0  0  0  0  0  0  0  0  0  0
   -2.7680   -1.8460   -0.0415 H   0  0  0  0  0  0  0  0  0  0  0  0
   -3.9308   -2.6621   -2.0968 H   0  0  0  0  0  0  0  0  0  0  0  0
   -4.0925   -0.9050   -1.9304 H   0  0  0  0  0  0  0  0  0  0  0  0
   -2.9395   -1.5786   -3.0879 H   0  0  0  0  0  0  0  0  0  0  0  0
  1  2  1  0  0  0  0
  2  3  1  0  0  0  0
  3  4  2  0  0  0  0
  4  5  2  0  0  0  0
  4  6  2  0  0  0  0
  6  7  1  0  0  0  0
  7  8  1  0  0  0  0
  4  9  1  0  0  0  0
  9 10  1  0  0  0  0
 10 11  1  0  0  0  0
 11 12  1  0  0  0  0
 12 13  2  0  0  0  0
 12 14  2  0  0  0  0
 14 15  1  0  0  0  0
 15 16  1  0  0  0  0
 12 17  2  0  0  0  0
 17 18  1  0  0  0  0
 18 19  1  0  0  0  0
  1 20  1  0  0  0  0
  1 21  1  0  0  0  0
  1 22  1  0  0  0  0
  2 23  1  0  0  0  0
  2 24  1  0  0  0  0
  7 25  1  0  0  0  0
  7 26  1  0  0  0  0
  8 27  1  0  0  0  0
  8 28  1  0  0  0  0
  8 29  1  0  0  0  0
 10 30  1  0  0  0  0
 10 31  1  0  0  0  0
 15 32  1  0  0  0  0
 15 33  1  0  0  0  0
 16 34  1  0  0  0  0
 16 35  1  0  0  0  0
 16 36  1  0  0  0  0
 18 37  1  0  0  0  0
 18 38  1  0  0  0  0
 19 39  1  0  0  0  0
 19 40  1  0  0  0  0
 19 41  1  0  0  0  0
M  END
