41
 xtb: 6.7.1 (edcfbbe)
C            5.36068114403518       -2.26293979063893       -1.21012178843993
C            4.56929956673297       -0.98275001422497       -1.27355114985893
O            3.44303528147849       -1.12257554819421       -0.33891582190187
P            2.35921051157127        0.05883889450480       -0.17173375342788
S            3.04958008788923        1.87517269345797       -0.03606789914010
O            1.49427258770036       -0.49587443364085        1.05724783332443
C            1.86649652419452       -0.24029026920026        2.45766564958097
C            0.59580146986143       -0.25852486473567        3.26748158768897
S            1.07304525117520       -0.33462419183605       -1.80587510526157
C            0.12249850828945        1.23510730078518       -1.89000131414967
S           -0.89029555501835        1.70795735715605       -0.43339744977750
P           -2.37654908077993        0.19619082099810       -0.44595404196052
S           -3.16765920430193       -0.22165595519319       -2.17386913819687
O           -3.46030687362217        0.79276895748122        0.58094007890519
C           -3.23831066971769        0.86609173525001        2.04053688237922
C           -3.02784846532703        2.29696896935841        2.46485951984727
O           -1.62181419285586       -1.00327597378275        0.31436659572684
C           -2.08942802084796       -2.39511383085302        0.23337969753677
C           -3.31457165899269       -2.62439996259428        1.08416896149584
H            4.74883241899673       -3.11813760768369       -1.51025612505236
H            6.20995397639451       -2.18751629945727       -1.89581712970634
H            5.74568985037950       -2.43392443719958       -0.20082912543820
H            4.16861754492155       -0.80387202825023       -2.27710490396734
H            5.16405688405796       -0.11862550367152       -0.96323195640920
H            2.56186236094061       -1.02972255378164        2.75768783214237
H            2.37010802473857        0.72914787786440        2.51879201131204
H            0.84741347436482       -0.13162967708951        4.32514871912628
H           -0.06767115035981        0.55888707789098        2.96907022533342
H            0.06863130690460       -1.20997753757361        3.15039073653134
H           -0.52375928874012        1.13597924669389       -2.76737847083817
H            0.81262576421414        2.07065658051452       -2.03841502600741
H           -4.14915375188009        0.44803115793546        2.47515292191852
H           -2.39367130946414        0.22809287741897        2.31205814483510
H           -3.85957732903784        2.92903518440181        2.14136333854048
H           -2.97535176324339        2.33118826291689        3.55812057910924
H           -2.09340560052161        2.70557692636190        2.06953881425588
H           -2.26768200606905       -2.63611066576633       -0.81919396770351
H           -1.23445172338476       -2.97243104851937        0.59139456480308
H           -3.56831927850925       -3.68912328343222        1.05146613262526
H           -3.12662267241346       -2.34758587648631        2.12550599073859
H           -4.17508043981179       -2.05944442966623        0.71239387708936
