 xtb: 6.7.1 (edcfbbe)
          04032519423D

 20 20  0     0  0            999 V2000
    0.6173    1.6958   -0.0269 C   0  0  0  0  0  0  0  0  0  0  0  0
    1.3967    0.3997   -0.2604 C   0  0  0  0  0  0  0  0  0  0  0  0
    1.5914    0.2780   -1.3379 H   0  0  0  0  0  0  0  0  0  0  0  0
    0.5450   -0.7901    0.2068 C   0  0  0  0  0  0  0  0  0  0  0  0
    0.3627   -0.6863    1.2840 H   0  0  0  0  0  0  0  0  0  0  0  0
   -0.8029   -0.7461   -0.5343 C   0  0  0  0  0  0  0  0  0  0  0  0
   -0.6192   -0.8415   -1.6113 H   0  0  0  0  0  0  0  0  0  0  0  0
   -1.4645    0.6254   -0.2799 C   0  0  0  0  0  0  0  0  0  0  0  0
   -2.3644    0.7171   -0.9083 H   0  0  0  0  0  0  0  0  0  0  0  0
   -0.6394    1.6715   -0.6874 O   0  0  0  0  0  0  0  0  0  0  0  0
   -1.7984    0.7721    1.0717 O   0  0  0  0  0  0  0  0  0  0  0  0
   -1.7029   -1.7277   -0.0749 O   0  0  0  0  0  0  0  0  0  0  0  0
    1.2678   -1.9718   -0.0694 O   0  0  0  0  0  0  0  0  0  0  0  0
    2.6058    0.4791    0.4486 O   0  0  0  0  0  0  0  0  0  0  0  0
    1.1547    2.5454   -0.4454 H   0  0  0  0  0  0  0  0  0  0  0  0
    0.4801    1.8436    1.0498 H   0  0  0  0  0  0  0  0  0  0  0  0
   -2.3287    0.0032    1.3346 H   0  0  0  0  0  0  0  0  0  0  0  0
   -1.5073   -2.5768   -0.4943 H   0  0  0  0  0  0  0  0  0  0  0  0
    0.9404   -2.6936    0.4844 H   0  0  0  0  0  0  0  0  0  0  0  0
    3.0561   -0.3770    0.3750 H   0  0  0  0  0  0  0  0  0  0  0  0
  1  2  1  0  0  0  0
  2  3  1  0  0  0  0
  2  4  1  0  0  0  0
  4  5  1  0  0  0  0
  4  6  1  0  0  0  0
  6  7  1  0  0  0  0
  6  8  1  0  0  0  0
  8  9  1  0  0  0  0
  1 10  1  0  0  0  0
  8 10  1  0  0  0  0
  8 11  1  0  0  0  0
  6 12  1  0  0  0  0
  4 13  1  0  0  0  0
  2 14  1  0  0  0  0
  1 15  1  0  0  0  0
  1 16  1  0  0  0  0
 11 17  1  0  0  0  0
 12 18  1  0  0  0  0
 13 19  1  0  0  0  0
 14 20  1  0  0  0  0
M  END
