 xtb: 6.7.1 (edcfbbe)
          04092509473D

 38 37  0     0  0            999 V2000
    5.3041   -0.7236   -1.8949 C   0  0  0  0  0  0  0  0  0  0  0  0
    4.5603   -1.3925   -0.7556 C   0  0  0  0  0  0  0  0  0  0  0  0
    3.1445   -1.2695   -0.9992 O   0  0  0  0  0  0  0  0  0  0  0  0
    2.3332   -1.8998   -0.1673 C   0  0  0  0  0  0  0  0  0  0  0  0
    2.7133   -2.5874    0.7534 O   0  0  0  0  0  0  0  0  0  0  0  0
    0.8735   -1.7374   -0.5502 C   0  0  0  0  0  0  0  0  0  0  0  0
    0.5429   -0.2922   -0.9017 C   0  0  0  0  0  0  0  0  0  0  0  0
    1.1473    0.0249   -1.7591 H   0  0  0  0  0  0  0  0  0  0  0  0
    0.8847    0.6453    0.2422 C   0  0  0  0  0  0  0  0  0  0  0  0
    1.7744    0.4022    1.0249 O   0  0  0  0  0  0  0  0  0  0  0  0
    0.1659    1.7507    0.2279 O   0  0  0  0  0  0  0  0  0  0  0  0
    0.4722    2.7716    1.2018 C   0  0  0  0  0  0  0  0  0  0  0  0
    1.6075    3.6645    0.7279 C   0  0  0  0  0  0  0  0  0  0  0  0
   -1.1721   -0.1012   -1.4863 S   0  0  0  0  0  0  0  0  0  0  0  0
   -2.2593    0.0825    0.3281 P   0  0  0  0  0  0  0  0  0  0  0  0
   -1.4739   -0.6793    1.9558 S   0  0  0  0  0  0  0  0  0  0  0  0
   -2.6515    1.5998    0.5173 O   0  0  0  0  0  0  0  0  0  0  0  0
   -3.2686    2.3714   -0.5348 C   0  0  0  0  0  0  0  0  0  0  0  0
   -3.6796   -0.5269   -0.0903 O   0  0  0  0  0  0  0  0  0  0  0  0
   -3.8837   -1.9264   -0.3173 C   0  0  0  0  0  0  0  0  0  0  0  0
    5.0626   -1.2083   -2.8361 H   0  0  0  0  0  0  0  0  0  0  0  0
    5.0298    0.3250   -1.9563 H   0  0  0  0  0  0  0  0  0  0  0  0
    6.3713   -0.8029   -1.7155 H   0  0  0  0  0  0  0  0  0  0  0  0
    4.7790   -0.9232    0.2088 H   0  0  0  0  0  0  0  0  0  0  0  0
    4.8031   -2.4574   -0.6804 H   0  0  0  0  0  0  0  0  0  0  0  0
    0.2744   -2.0834    0.2947 H   0  0  0  0  0  0  0  0  0  0  0  0
    0.6783   -2.3728   -1.4157 H   0  0  0  0  0  0  0  0  0  0  0  0
   -0.4591    3.3275    1.3110 H   0  0  0  0  0  0  0  0  0  0  0  0
    0.7275    2.2789    2.1445 H   0  0  0  0  0  0  0  0  0  0  0  0
    1.7720    4.4435    1.4656 H   0  0  0  0  0  0  0  0  0  0  0  0
    2.5223    3.0857    0.6215 H   0  0  0  0  0  0  0  0  0  0  0  0
    1.3592    4.1213   -0.2259 H   0  0  0  0  0  0  0  0  0  0  0  0
   -2.6160    2.3915   -1.4072 H   0  0  0  0  0  0  0  0  0  0  0  0
   -3.3921    3.3683   -0.1203 H   0  0  0  0  0  0  0  0  0  0  0  0
   -4.2325    1.9400   -0.7963 H   0  0  0  0  0  0  0  0  0  0  0  0
   -4.9596   -2.0513   -0.4154 H   0  0  0  0  0  0  0  0  0  0  0  0
   -3.5109   -2.5043    0.5294 H   0  0  0  0  0  0  0  0  0  0  0  0
   -3.3788   -2.2344   -1.2325 H   0  0  0  0  0  0  0  0  0  0  0  0
  1  2  1  0  0  0  0
  2  3  1  0  0  0  0
  3  4  1  0  0  0  0
  4  5  2  0  0  0  0
  4  6  1  0  0  0  0
  6  7  1  0  0  0  0
  7  8  1  0  0  0  0
  7  9  1  0  0  0  0
  9 10  2  0  0  0  0
  9 11  1  0  0  0  0
 11 12  1  0  0  0  0
 12 13  1  0  0  0  0
  7 14  1  0  0  0  0
 14 15  1  0  0  0  0
 15 16  2  0  0  0  0
 15 17  2  0  0  0  0
 17 18  1  0  0  0  0
 15 19  1  0  0  0  0
 19 20  1  0  0  0  0
  1 21  1  0  0  0  0
  1 22  1  0  0  0  0
  1 23  1  0  0  0  0
  2 24  1  0  0  0  0
  2 25  1  0  0  0  0
  6 26  1  0  0  0  0
  6 27  1  0  0  0  0
 12 28  1  0  0  0  0
 12 29  1  0  0  0  0
 13 30  1  0  0  0  0
 13 31  1  0  0  0  0
 13 32  1  0  0  0  0
 18 33  1  0  0  0  0
 18 34  1  0  0  0  0
 18 35  1  0  0  0  0
 20 36  1  0  0  0  0
 20 37  1  0  0  0  0
 20 38  1  0  0  0  0
M  END
