 xtb: 6.7.1 (edcfbbe)
          04092509473D

 38 37  0     0  0            999 V2000
    5.0664   -0.1662   -0.4567 C   0  0  0  0  0  0  0  0  0  0  0  0
    4.5039   -1.2818   -1.3218 C   0  0  0  0  0  0  0  0  0  0  0  0
    3.0679   -1.1936   -1.4025 O   0  0  0  0  0  0  0  0  0  0  0  0
    2.3429   -1.8782   -0.5318 C   0  0  0  0  0  0  0  0  0  0  0  0
    2.7995   -2.6175    0.3089 O   0  0  0  0  0  0  0  0  0  0  0  0
    0.8554   -1.7015   -0.7827 C   0  0  0  0  0  0  0  0  0  0  0  0
    0.5014   -0.2366   -1.0069 C   0  0  0  0  0  0  0  0  0  0  0  0
    1.0657    0.1492   -1.8636 H   0  0  0  0  0  0  0  0  0  0  0  0
    0.8921    0.6096    0.1913 C   0  0  0  0  0  0  0  0  0  0  0  0
    1.8051    0.3013    0.9216 O   0  0  0  0  0  0  0  0  0  0  0  0
    0.1841    1.7183    0.2866 O   0  0  0  0  0  0  0  0  0  0  0  0
    0.5318    2.6541    1.3298 C   0  0  0  0  0  0  0  0  0  0  0  0
    1.6943    3.5425    0.9176 C   0  0  0  0  0  0  0  0  0  0  0  0
   -1.2374   -0.0100   -1.5018 S   0  0  0  0  0  0  0  0  0  0  0  0
   -2.2499    0.0275    0.3631 P   0  0  0  0  0  0  0  0  0  0  0  0
   -1.4108   -0.8775    1.8865 S   0  0  0  0  0  0  0  0  0  0  0  0
   -2.6145    1.5263    0.6991 O   0  0  0  0  0  0  0  0  0  0  0  0
   -3.2512    2.3968   -0.2596 C   0  0  0  0  0  0  0  0  0  0  0  0
   -3.6933   -0.5288   -0.0506 O   0  0  0  0  0  0  0  0  0  0  0  0
   -3.9264   -1.9005   -0.3909 C   0  0  0  0  0  0  0  0  0  0  0  0
    4.7981    0.8020   -0.8705 H   0  0  0  0  0  0  0  0  0  0  0  0
    4.6605   -0.2403    0.5503 H   0  0  0  0  0  0  0  0  0  0  0  0
    6.1471   -0.2519   -0.4139 H   0  0  0  0  0  0  0  0  0  0  0  0
    4.7691   -2.2607   -0.9124 H   0  0  0  0  0  0  0  0  0  0  0  0
    4.8437   -1.1958   -2.3547 H   0  0  0  0  0  0  0  0  0  0  0  0
    0.3239   -2.1077    0.0802 H   0  0  0  0  0  0  0  0  0  0  0  0
    0.5943   -2.2764   -1.6728 H   0  0  0  0  0  0  0  0  0  0  0  0
   -0.3795    3.2308    1.4870 H   0  0  0  0  0  0  0  0  0  0  0  0
    0.7755    2.0844    2.2314 H   0  0  0  0  0  0  0  0  0  0  0  0
    1.4572    4.0814    0.0046 H   0  0  0  0  0  0  0  0  0  0  0  0
    1.8893    4.2548    1.7130 H   0  0  0  0  0  0  0  0  0  0  0  0
    2.5884    2.9436    0.7594 H   0  0  0  0  0  0  0  0  0  0  0  0
   -3.3603    3.3498    0.2512 H   0  0  0  0  0  0  0  0  0  0  0  0
   -4.2230    1.9957   -0.5394 H   0  0  0  0  0  0  0  0  0  0  0  0
   -2.6179    2.4987   -1.1405 H   0  0  0  0  0  0  0  0  0  0  0  0
   -3.5331   -2.5547    0.3883 H   0  0  0  0  0  0  0  0  0  0  0  0
   -3.4588   -2.1338   -1.3471 H   0  0  0  0  0  0  0  0  0  0  0  0
   -5.0069   -2.0031   -0.4605 H   0  0  0  0  0  0  0  0  0  0  0  0
  1  2  1  0  0  0  0
  2  3  1  0  0  0  0
  3  4  1  0  0  0  0
  4  5  2  0  0  0  0
  4  6  1  0  0  0  0
  6  7  1  0  0  0  0
  7  8  1  0  0  0  0
  7  9  1  0  0  0  0
  9 10  2  0  0  0  0
  9 11  1  0  0  0  0
 11 12  1  0  0  0  0
 12 13  1  0  0  0  0
  7 14  1  0  0  0  0
 14 15  1  0  0  0  0
 15 16  2  0  0  0  0
 15 17  2  0  0  0  0
 17 18  1  0  0  0  0
 15 19  1  0  0  0  0
 19 20  1  0  0  0  0
  1 21  1  0  0  0  0
  1 22  1  0  0  0  0
  1 23  1  0  0  0  0
  2 24  1  0  0  0  0
  2 25  1  0  0  0  0
  6 26  1  0  0  0  0
  6 27  1  0  0  0  0
 12 28  1  0  0  0  0
 12 29  1  0  0  0  0
 13 30  1  0  0  0  0
 13 31  1  0  0  0  0
 13 32  1  0  0  0  0
 18 33  1  0  0  0  0
 18 34  1  0  0  0  0
 18 35  1  0  0  0  0
 20 36  1  0  0  0  0
 20 37  1  0  0  0  0
 20 38  1  0  0  0  0
M  END
