  24
 
 C          3.2931128865        1.0388100816        0.0465294115
 N          2.2812509183        0.0153732762        0.0320882881
 C          2.4665143507       -1.3129398712        0.0473441419
 N          1.3430399608       -2.0067913526        0.0355433628
 C          0.3699972175       -1.0723672934        0.0121809244
 C          0.9203196490        0.2066340340        0.0112294234
 C          0.1127554700        1.3805488181       -0.0138293679
 O          0.5074044695        2.5437721767       -0.0269657277
 N         -1.2450459103        1.0713874926       -0.0206200223
 C         -1.8142308148       -0.1942598560       -0.0283624405
 O         -3.0292863238       -0.3287311577       -0.0480166469
 N         -0.9746069530       -1.2740282646       -0.0038998011
 C         -1.5223239561       -2.6172825796       -0.0222464224
 C         -2.1919236202        2.1773404642       -0.0371420857
 H          3.8422814017        1.0097608420        0.9867669288
 H          3.9867747847        0.8878478086       -0.7786064680
 H          2.8053102061        2.0055207252       -0.0558576163
 H          3.4355228599       -1.7687467848        0.0662972516
 H         -1.6910751295       -2.9393290663       -1.0495135908
 H         -2.4717637673       -2.6110804004        0.5089274645
 H         -0.8054834913       -3.2773381272        0.4566710255
 H         -2.7153236431        2.2031344798       -0.9915339545
 H         -1.6283193104        3.0947738319        0.1086930530
 H         -2.9215615108        2.0389210808        0.7578459460
          24
        -42.17171649
 C          3.2795732177        1.0666178453       -0.0040398611
 N          2.2763787508        0.0344485234        0.0005146320
 C          2.4734526608       -1.2924536032        0.0008876950
 N          1.3559836815       -1.9961053050        0.0013904970
 C          0.3750087059       -1.0701594349        0.0006270344
 C          0.9138829189        0.2136283444        0.0001042649
 C          0.0943474451        1.3792623080        0.0011956745
 O          0.4768293755        2.5465113953        0.0029946237
 N         -1.2601362146        1.0550682354        0.0000144401
 C         -1.8184935569       -0.2153277875       -0.0003479865
 O         -3.0334681753       -0.3548310575       -0.0011335574
 N         -0.9677823140       -1.2870566619        0.0002917063
 C         -1.4846333669       -2.6423340677       -0.0005723799
 C         -2.2200608367        2.1502113596       -0.0010936621
 H          3.9169328147        0.9717330904        0.8740847612
 H          3.8916267428        0.9887945851       -0.9018344308
 H          2.7786794336        2.0323920810        0.0116152808
 H          3.4464967150       -1.7401048054        0.0012128658
 H         -1.1226291134       -3.1668901013        0.8811546587
 H         -1.1377185674       -3.1607656094       -0.8921023428
 H         -2.5703446374       -2.5851090295        0.0082819452
 H         -1.6568588242        3.0796909350       -0.0017290739
 H         -2.8513754106        2.0842668187        0.8835002659
 H         -2.8509830930        2.0826935723       -0.8858550640
