 xtb: 6.7.1 (edcfbbe)
          04092505213D

 41 40  0     0  0            999 V2000
    3.9977   -1.6472   -2.2646 C   0  0  0  0  0  0  0  0  0  0  0  0
    4.3585   -0.9145   -0.9881 C   0  0  0  0  0  0  0  0  0  0  0  0
    3.2274   -0.7774   -0.1156 O   0  0  0  0  0  0  0  0  0  0  0  0
    2.0279    0.2350   -0.4286 P   0  0  0  0  0  0  0  0  0  0  0  0
    2.6191    1.8797   -1.3126 S   0  0  0  0  0  0  0  0  0  0  0  0
    1.3433    0.2845    0.9986 O   0  0  0  0  0  0  0  0  0  0  0  0
    2.0059    0.7695    2.1884 C   0  0  0  0  0  0  0  0  0  0  0  0
    1.9323    2.2794    2.2887 C   0  0  0  0  0  0  0  0  0  0  0  0
    0.5895   -0.9038   -1.4705 S   0  0  0  0  0  0  0  0  0  0  0  0
    0.1753   -2.1195   -0.1916 C   0  0  0  0  0  0  0  0  0  0  0  0
   -0.9805   -1.5166    1.0921 S   0  0  0  0  0  0  0  0  0  0  0  0
   -1.9653    0.1121    0.1281 P   0  0  0  0  0  0  0  0  0  0  0  0
   -1.0901    1.8376   -0.1997 S   0  0  0  0  0  0  0  0  0  0  0  0
   -3.2486    0.2408    1.0634 O   0  0  0  0  0  0  0  0  0  0  0  0
   -3.2801    1.1019    2.2146 C   0  0  0  0  0  0  0  0  0  0  0  0
   -2.2729    0.6850    3.2663 C   0  0  0  0  0  0  0  0  0  0  0  0
   -2.5460   -0.4993   -1.2040 O   0  0  0  0  0  0  0  0  0  0  0  0
   -3.3959   -1.6743   -1.2592 C   0  0  0  0  0  0  0  0  0  0  0  0
   -4.8556   -1.2750   -1.3285 C   0  0  0  0  0  0  0  0  0  0  0  0
    4.8928   -1.7908   -2.8611 H   0  0  0  0  0  0  0  0  0  0  0  0
    3.5547   -2.6135   -2.0388 H   0  0  0  0  0  0  0  0  0  0  0  0
    3.2830   -1.0571   -2.8382 H   0  0  0  0  0  0  0  0  0  0  0  0
    4.7418    0.0854   -1.2158 H   0  0  0  0  0  0  0  0  0  0  0  0
    5.0867   -1.4689   -0.3945 H   0  0  0  0  0  0  0  0  0  0  0  0
    1.4572    0.2875    3.0007 H   0  0  0  0  0  0  0  0  0  0  0  0
    3.0411    0.4207    2.1829 H   0  0  0  0  0  0  0  0  0  0  0  0
    2.5193    2.7426    1.4981 H   0  0  0  0  0  0  0  0  0  0  0  0
    0.9019    2.6114    2.1807 H   0  0  0  0  0  0  0  0  0  0  0  0
    2.3165    2.5963    3.2528 H   0  0  0  0  0  0  0  0  0  0  0  0
    1.0808   -2.4325    0.3245 H   0  0  0  0  0  0  0  0  0  0  0  0
   -0.2876   -2.9529   -0.7151 H   0  0  0  0  0  0  0  0  0  0  0  0
   -3.0860    2.1264    1.8817 H   0  0  0  0  0  0  0  0  0  0  0  0
   -4.3051    1.0163    2.5778 H   0  0  0  0  0  0  0  0  0  0  0  0
   -2.4117   -0.3598    3.5332 H   0  0  0  0  0  0  0  0  0  0  0  0
   -1.2645    0.8181    2.8750 H   0  0  0  0  0  0  0  0  0  0  0  0
   -2.3931    1.3059    4.1482 H   0  0  0  0  0  0  0  0  0  0  0  0
   -3.0813   -2.1922   -2.1672 H   0  0  0  0  0  0  0  0  0  0  0  0
   -3.2022   -2.2970   -0.3816 H   0  0  0  0  0  0  0  0  0  0  0  0
   -5.1485   -0.7592   -0.4180 H   0  0  0  0  0  0  0  0  0  0  0  0
   -5.0211   -0.6132   -2.1742 H   0  0  0  0  0  0  0  0  0  0  0  0
   -5.4618   -2.1677   -1.4469 H   0  0  0  0  0  0  0  0  0  0  0  0
  1  2  1  0  0  0  0
  2  3  1  0  0  0  0
  3  4  2  0  0  0  0
  4  5  2  0  0  0  0
  4  6  2  0  0  0  0
  6  7  1  0  0  0  0
  7  8  1  0  0  0  0
  4  9  1  0  0  0  0
  9 10  1  0  0  0  0
 10 11  1  0  0  0  0
 11 12  1  0  0  0  0
 12 13  2  0  0  0  0
 12 14  2  0  0  0  0
 14 15  1  0  0  0  0
 15 16  1  0  0  0  0
 12 17  2  0  0  0  0
 17 18  1  0  0  0  0
 18 19  1  0  0  0  0
  1 20  1  0  0  0  0
  1 21  1  0  0  0  0
  1 22  1  0  0  0  0
  2 23  1  0  0  0  0
  2 24  1  0  0  0  0
  7 25  1  0  0  0  0
  7 26  1  0  0  0  0
  8 27  1  0  0  0  0
  8 28  1  0  0  0  0
  8 29  1  0  0  0  0
 10 30  1  0  0  0  0
 10 31  1  0  0  0  0
 15 32  1  0  0  0  0
 15 33  1  0  0  0  0
 16 34  1  0  0  0  0
 16 35  1  0  0  0  0
 16 36  1  0  0  0  0
 18 37  1  0  0  0  0
 18 38  1  0  0  0  0
 19 39  1  0  0  0  0
 19 40  1  0  0  0  0
 19 41  1  0  0  0  0
M  END
