8
CONF2
C 0.7232801412 0.5541197945 -0.2418340776
C -0.7230835778 0.5540458248 0.2420697072
Cl -1.8207518493 0.6772063507 -1.1838540858
Cl -1.1322096454 -0.8854836117 1.2292566871
Cl 1.8209554862 0.6765817753 1.1841380480
Cl 1.1323210255 -0.8849823401 -1.2296744437
H 0.8964961270 1.4409923945 -0.8553603343
H -0.8962539752 1.4406507091 0.8559983100
8
CONF1
C 0.6574394217 0.0000723575 -0.3909511727
C -0.6576501723 0.0001504050 0.3908576245
Cl -1.6154407235 1.4668447433 -0.0313148835
Cl -1.6155081621 -1.4665233185 -0.0311933999
Cl 1.6153589449 1.4667042228 0.0311346077
Cl 1.6151670498 -1.4666749248 0.0311520500
H 0.4969921003 0.0000706448 -1.4706701672
H -0.4972036653 0.0001851586 1.4705767376
