 xtb: 6.7.1 (edcfbbe)
          04092505213D

 41 40  0     0  0            999 V2000
    1.6958    2.6778    2.1596 C   0  0  0  0  0  0  0  0  0  0  0  0
    2.4785    1.3810    2.1776 C   0  0  0  0  0  0  0  0  0  0  0  0
    2.4606    0.8250    0.8422 O   0  0  0  0  0  0  0  0  0  0  0  0
    2.4100   -0.7253    0.5458 P   0  0  0  0  0  0  0  0  0  0  0  0
    1.3952   -1.8173    1.8261 S   0  0  0  0  0  0  0  0  0  0  0  0
    3.9582   -1.0804    0.4636 O   0  0  0  0  0  0  0  0  0  0  0  0
    4.4501   -2.4316    0.4951 C   0  0  0  0  0  0  0  0  0  0  0  0
    4.0711   -3.2055   -0.7511 C   0  0  0  0  0  0  0  0  0  0  0  0
    1.7273   -0.6901   -1.4487 S   0  0  0  0  0  0  0  0  0  0  0  0
   -0.0269   -0.7675   -1.0365 C   0  0  0  0  0  0  0  0  0  0  0  0
   -0.5932    0.7830   -0.2681 S   0  0  0  0  0  0  0  0  0  0  0  0
   -2.6625    0.5341   -0.7194 P   0  0  0  0  0  0  0  0  0  0  0  0
   -3.0846   -0.3679   -2.4002 S   0  0  0  0  0  0  0  0  0  0  0  0
   -3.2672    1.9927   -0.5269 O   0  0  0  0  0  0  0  0  0  0  0  0
   -3.3402    2.9467   -1.6039 C   0  0  0  0  0  0  0  0  0  0  0  0
   -1.9715    3.3608   -2.1033 C   0  0  0  0  0  0  0  0  0  0  0  0
   -3.2640   -0.2367    0.5189 O   0  0  0  0  0  0  0  0  0  0  0  0
   -3.1140    0.2294    1.8859 C   0  0  0  0  0  0  0  0  0  0  0  0
   -2.3652   -0.8065    2.6993 C   0  0  0  0  0  0  0  0  0  0  0  0
    1.7116    3.1175    3.1514 H   0  0  0  0  0  0  0  0  0  0  0  0
    2.1402    3.3680    1.4490 H   0  0  0  0  0  0  0  0  0  0  0  0
    0.6680    2.4857    1.8631 H   0  0  0  0  0  0  0  0  0  0  0  0
    2.0340    0.6547    2.8670 H   0  0  0  0  0  0  0  0  0  0  0  0
    3.5233    1.5448    2.4503 H   0  0  0  0  0  0  0  0  0  0  0  0
    5.5309   -2.3143    0.5838 H   0  0  0  0  0  0  0  0  0  0  0  0
    4.0541   -2.9227    1.3899 H   0  0  0  0  0  0  0  0  0  0  0  0
    4.5635   -4.1726   -0.7375 H   0  0  0  0  0  0  0  0  0  0  0  0
    2.9931   -3.3590   -0.7830 H   0  0  0  0  0  0  0  0  0  0  0  0
    4.3714   -2.6583   -1.6411 H   0  0  0  0  0  0  0  0  0  0  0  0
   -0.1909   -1.5922   -0.3404 H   0  0  0  0  0  0  0  0  0  0  0  0
   -0.5771   -0.9225   -1.9658 H   0  0  0  0  0  0  0  0  0  0  0  0
   -3.9267    2.5039   -2.4145 H   0  0  0  0  0  0  0  0  0  0  0  0
   -3.8826    3.7864   -1.1674 H   0  0  0  0  0  0  0  0  0  0  0  0
   -2.0830    4.1610   -2.8281 H   0  0  0  0  0  0  0  0  0  0  0  0
   -1.3526    3.7043   -1.2782 H   0  0  0  0  0  0  0  0  0  0  0  0
   -1.4799    2.5171   -2.5859 H   0  0  0  0  0  0  0  0  0  0  0  0
   -2.5916    1.1889    1.8815 H   0  0  0  0  0  0  0  0  0  0  0  0
   -4.1297    0.3681    2.2590 H   0  0  0  0  0  0  0  0  0  0  0  0
   -2.3394   -0.4935    3.7381 H   0  0  0  0  0  0  0  0  0  0  0  0
   -2.8637   -1.7690    2.6276 H   0  0  0  0  0  0  0  0  0  0  0  0
   -1.3432   -0.9210    2.3436 H   0  0  0  0  0  0  0  0  0  0  0  0
  1  2  1  0  0  0  0
  2  3  1  0  0  0  0
  3  4  2  0  0  0  0
  4  5  2  0  0  0  0
  4  6  2  0  0  0  0
  6  7  1  0  0  0  0
  7  8  1  0  0  0  0
  4  9  1  0  0  0  0
  9 10  1  0  0  0  0
 10 11  1  0  0  0  0
 11 12  1  0  0  0  0
 12 13  2  0  0  0  0
 12 14  2  0  0  0  0
 14 15  1  0  0  0  0
 15 16  1  0  0  0  0
 12 17  2  0  0  0  0
 17 18  1  0  0  0  0
 18 19  1  0  0  0  0
  1 20  1  0  0  0  0
  1 21  1  0  0  0  0
  1 22  1  0  0  0  0
  2 23  1  0  0  0  0
  2 24  1  0  0  0  0
  7 25  1  0  0  0  0
  7 26  1  0  0  0  0
  8 27  1  0  0  0  0
  8 28  1  0  0  0  0
  8 29  1  0  0  0  0
 10 30  1  0  0  0  0
 10 31  1  0  0  0  0
 15 32  1  0  0  0  0
 15 33  1  0  0  0  0
 16 34  1  0  0  0  0
 16 35  1  0  0  0  0
 16 36  1  0  0  0  0
 18 37  1  0  0  0  0
 18 38  1  0  0  0  0
 19 39  1  0  0  0  0
 19 40  1  0  0  0  0
 19 41  1  0  0  0  0
M  END
