 xtb: 6.7.1 (edcfbbe)
          04032519563D

 17 17  0     0  0            999 V2000
    1.8552   -1.4357    0.0260 C   0  0  0  0  0  0  0  0  0  0  0  0
    0.5522   -0.7050    0.0259 C   0  0  0  0  0  0  0  0  0  0  0  0
   -0.6560   -1.3889    0.0860 C   0  0  0  0  0  0  0  0  0  0  0  0
   -1.8423   -0.6757    0.0840 C   0  0  0  0  0  0  0  0  0  0  0  0
   -1.8938    0.6462    0.0270 N   0  0  0  0  0  0  0  0  0  0  0  0
   -0.7423    1.2982   -0.0303 C   0  0  0  0  0  0  0  0  0  0  0  0
    0.5079    0.6934   -0.0345 C   0  0  0  0  0  0  0  0  0  0  0  0
    1.7576    1.5108   -0.1007 C   0  0  0  0  0  0  0  0  0  0  0  0
    2.4597   -1.1283    0.8779 H   0  0  0  0  0  0  0  0  0  0  0  0
    1.6946   -2.5086    0.0772 H   0  0  0  0  0  0  0  0  0  0  0  0
    2.4168   -1.2053   -0.8777 H   0  0  0  0  0  0  0  0  0  0  0  0
   -0.6728   -2.4671    0.1339 H   0  0  0  0  0  0  0  0  0  0  0  0
   -2.7992   -1.1784    0.1299 H   0  0  0  0  0  0  0  0  0  0  0  0
   -0.8287    2.3769   -0.0757 H   0  0  0  0  0  0  0  0  0  0  0  0
    1.5187    2.5697   -0.1455 H   0  0  0  0  0  0  0  0  0  0  0  0
    2.3776    1.3274    0.7755 H   0  0  0  0  0  0  0  0  0  0  0  0
    2.3394    1.2442   -0.9816 H   0  0  0  0  0  0  0  0  0  0  0  0
  1  2  1  0  0  0  0
  2  3  4  0  0  0  0
  3  4  4  0  0  0  0
  4  5  4  0  0  0  0
  5  6  4  0  0  0  0
  2  7  4  0  0  0  0
  6  7  4  0  0  0  0
  7  8  1  0  0  0  0
  1  9  1  0  0  0  0
  1 10  1  0  0  0  0
  1 11  1  0  0  0  0
  3 12  1  0  0  0  0
  4 13  1  0  0  0  0
  6 14  1  0  0  0  0
  8 15  1  0  0  0  0
  8 16  1  0  0  0  0
  8 17  1  0  0  0  0
M  END
