 xtb: 6.7.1 (edcfbbe)
          04092514003D

 41 40  0     0  0            999 V2000
    5.0077   -1.6709   -0.7190 C   0  0  0  0  0  0  0  0  0  0  0  0
    4.5444   -0.5563   -1.6348 C   0  0  0  0  0  0  0  0  0  0  0  0
    3.1413   -0.2514   -1.4652 O   0  0  0  0  0  0  0  0  0  0  0  0
    2.6101    0.4528   -0.1430 P   0  0  0  0  0  0  0  0  0  0  0  0
    3.7922    1.7939    0.6560 S   0  0  0  0  0  0  0  0  0  0  0  0
    2.2928   -0.8082    0.7830 O   0  0  0  0  0  0  0  0  0  0  0  0
    2.2487   -0.7117    2.2139 C   0  0  0  0  0  0  0  0  0  0  0  0
    1.0254    0.0392    2.6981 C   0  0  0  0  0  0  0  0  0  0  0  0
    0.7492    1.1731   -0.8369 S   0  0  0  0  0  0  0  0  0  0  0  0
    0.0186   -0.3507   -1.5205 C   0  0  0  0  0  0  0  0  0  0  0  0
   -0.8069   -1.4013   -0.2957 S   0  0  0  0  0  0  0  0  0  0  0  0
   -2.5425   -0.2376   -0.0397 P   0  0  0  0  0  0  0  0  0  0  0  0
   -3.3195    0.6108   -1.6335 S   0  0  0  0  0  0  0  0  0  0  0  0
   -2.0509    0.7333    1.1133 O   0  0  0  0  0  0  0  0  0  0  0  0
   -2.8004    1.9094    1.4965 C   0  0  0  0  0  0  0  0  0  0  0  0
   -2.1259    3.1572    0.9623 C   0  0  0  0  0  0  0  0  0  0  0  0
   -3.5490   -1.1758    0.7621 O   0  0  0  0  0  0  0  0  0  0  0  0
   -4.5547   -1.9896    0.1328 C   0  0  0  0  0  0  0  0  0  0  0  0
   -3.9613   -3.1759   -0.5993 C   0  0  0  0  0  0  0  0  0  0  0  0
    6.0310   -1.9345   -0.9693 H   0  0  0  0  0  0  0  0  0  0  0  0
    4.9745   -1.3420    0.3185 H   0  0  0  0  0  0  0  0  0  0  0  0
    4.3719   -2.5448   -0.8328 H   0  0  0  0  0  0  0  0  0  0  0  0
    4.6252   -0.8386   -2.6853 H   0  0  0  0  0  0  0  0  0  0  0  0
    5.1205    0.3562   -1.4503 H   0  0  0  0  0  0  0  0  0  0  0  0
    2.2444   -1.7495    2.5492 H   0  0  0  0  0  0  0  0  0  0  0  0
    3.1604   -0.2092    2.5550 H   0  0  0  0  0  0  0  0  0  0  0  0
    1.0082    0.0370    3.7832 H   0  0  0  0  0  0  0  0  0  0  0  0
    1.0623    1.0708    2.3470 H   0  0  0  0  0  0  0  0  0  0  0  0
    0.1164   -0.4254    2.3237 H   0  0  0  0  0  0  0  0  0  0  0  0
    0.7986   -0.9473   -1.9834 H   0  0  0  0  0  0  0  0  0  0  0  0
   -0.7166   -0.0169   -2.2538 H   0  0  0  0  0  0  0  0  0  0  0  0
   -3.8239    1.8280    1.1188 H   0  0  0  0  0  0  0  0  0  0  0  0
   -2.8122    1.8972    2.5875 H   0  0  0  0  0  0  0  0  0  0  0  0
   -2.6604    4.0336    1.3148 H   0  0  0  0  0  0  0  0  0  0  0  0
   -1.0950    3.2023    1.3025 H   0  0  0  0  0  0  0  0  0  0  0  0
   -2.1293    3.1511   -0.1257 H   0  0  0  0  0  0  0  0  0  0  0  0
   -5.1886   -2.3072    0.9623 H   0  0  0  0  0  0  0  0  0  0  0  0
   -5.1293   -1.3609   -0.5550 H   0  0  0  0  0  0  0  0  0  0  0  0
   -3.3168   -3.7475    0.0633 H   0  0  0  0  0  0  0  0  0  0  0  0
   -4.7660   -3.8120   -0.9553 H   0  0  0  0  0  0  0  0  0  0  0  0
   -3.3764   -2.8355   -1.4525 H   0  0  0  0  0  0  0  0  0  0  0  0
  1  2  1  0  0  0  0
  2  3  1  0  0  0  0
  3  4  2  0  0  0  0
  4  5  2  0  0  0  0
  4  6  2  0  0  0  0
  6  7  1  0  0  0  0
  7  8  1  0  0  0  0
  4  9  1  0  0  0  0
  9 10  1  0  0  0  0
 10 11  1  0  0  0  0
 11 12  1  0  0  0  0
 12 13  2  0  0  0  0
 12 14  2  0  0  0  0
 14 15  1  0  0  0  0
 15 16  1  0  0  0  0
 12 17  2  0  0  0  0
 17 18  1  0  0  0  0
 18 19  1  0  0  0  0
  1 20  1  0  0  0  0
  1 21  1  0  0  0  0
  1 22  1  0  0  0  0
  2 23  1  0  0  0  0
  2 24  1  0  0  0  0
  7 25  1  0  0  0  0
  7 26  1  0  0  0  0
  8 27  1  0  0  0  0
  8 28  1  0  0  0  0
  8 29  1  0  0  0  0
 10 30  1  0  0  0  0
 10 31  1  0  0  0  0
 15 32  1  0  0  0  0
 15 33  1  0  0  0  0
 16 34  1  0  0  0  0
 16 35  1  0  0  0  0
 16 36  1  0  0  0  0
 18 37  1  0  0  0  0
 18 38  1  0  0  0  0
 19 39  1  0  0  0  0
 19 40  1  0  0  0  0
 19 41  1  0  0  0  0
M  END
