  17
 
 C         -4.7362921810        0.0838584139       -0.0006758113
 C         -3.3685913788       -0.5884544301        0.0013369492
 C         -2.2360065551        0.4369250800        0.0062532793
 C         -0.8654051661       -0.2403907961        0.0067716065
 C          0.2387928740        0.7975741294        0.0010507772
 Br         2.0201586587       -0.0515349074        0.0004642226
 H         -5.5259150171       -0.6629561249       -0.0032370016
 H         -4.8523541705        0.7101840125       -0.8822043882
 H         -4.8561397938        0.7082420218        0.8817287810
 H         -3.2794119007       -1.2282020689        0.8816797348
 H         -3.2750803517       -1.2240593908       -0.8815085188
 H         -2.3248019705        1.0765596500       -0.8745281270
 H         -2.3279326509        1.0723767456        0.8896960788
 H         -0.7693506024       -0.8740568202        0.8911894815
 H         -0.7722506180       -0.8801573729       -0.8735723623
 H          0.2142099896        1.4243958422        0.8906647237
 H          0.2109445811        1.4172664659       -0.8934486531
          17
        -20.40847622
 C         -3.9620001863       -0.9436163113       -0.1820149869
 C         -3.0714789471        0.1613190716        0.3731940503
 C         -1.6919354547        0.1535876050       -0.2810219201
 C         -0.7925110464        1.2553897234        0.2737707542
 C          0.5743942666        1.2840956763       -0.3796912556
 Br         1.6261327841       -0.3344848148        0.0397564657
 H         -4.1056243093       -0.8161618196       -1.2526587321
 H         -4.9361102321       -0.9268642640        0.3000458505
 H         -3.5102739448       -1.9182794693       -0.0112565634
 H         -3.5465170424        1.1301912481        0.2043205889
 H         -2.9597576524        0.0291845311        1.4514776322
 H         -1.2218937349       -0.8182272055       -0.1109071588
 H         -1.8033589470        0.2846825259       -1.3602889757
 H         -1.2564906805        2.2288363829        0.0952338045
 H         -0.6821310783        1.1298803430        1.3532208582
 H          1.1792556387        2.1151360496       -0.0223163877
 H          0.5056078881        1.3083693027       -1.4657884118
