  17
 
 C          2.7614780240        0.0183153485       -0.7073487684
 C          1.9722038765        0.0017689330        0.6045486885
 C          0.4988396707       -0.0292120346        0.3298196805
 C         -0.1907776440       -1.2268226206        0.1762819292
 C         -1.5445723566       -1.1994425878       -0.1134375560
 C         -2.1650681044        0.0335599018       -0.2431383029
 N         -1.5246112813        1.1845549565       -0.1033722636
 C         -0.2315985911        1.1451080983        0.1738068661
 H          3.8287204205        0.0391962591       -0.5035992407
 H          2.5008086234        0.8961653774       -1.2940355118
 H          2.5361382381       -0.8673334535       -1.2969239039
 H          2.2177823764        0.8932701476        1.1835385579
 H          2.2556043262       -0.8779379366        1.1846877858
 H          0.3287014831       -2.1681958029        0.2865443843
 H         -2.1076427273       -2.1113149022       -0.2344363959
 H         -3.2205300628        0.1117101056       -0.4658117725
 H          0.2485988172        2.1097848324        0.2800675920
          17
        -22.49070983
 C          2.7475431248       -0.0168042463        0.7288754272
 C          1.9713373986       -0.0085062826       -0.5905126539
 C          0.4959291947        0.0230029664       -0.3268477356
 C         -0.1928008797        1.2212630149       -0.1743039962
 C         -1.5476840602        1.1942631331        0.1106242304
 C         -2.1692603766       -0.0382934411        0.2370700650
 N         -1.5302906857       -1.1897590326        0.0961072520
 C         -0.2362733870       -1.1506559959       -0.1768930438
 H          2.4772354943       -0.8882641728        1.3207976759
 H          2.5206537912        0.8749726623        1.3086516173
 H          3.8165210568       -0.0443199537        0.5363268420
 H          2.2225359952       -0.9030109306       -1.1626724771
 H          2.2588577207        0.8683161329       -1.1731666324
 H          0.3273427103        2.1624676767       -0.2819756829
 H         -2.1103672555        2.1062449011        0.2316215751
 H         -3.2250451809       -0.1158579872        0.4588593002
 H          0.2419547964       -2.1160090901       -0.2861464521
