 xtb: 6.7.1 (edcfbbe)
          04092514033D

 41 40  0     0  0            999 V2000
    4.8420   -1.6136   -0.7129 C   0  0  0  0  0  0  0  0  0  0  0  0
    4.7588   -0.1749   -0.2443 C   0  0  0  0  0  0  0  0  0  0  0  0
    3.5416    0.1043    0.4711 O   0  0  0  0  0  0  0  0  0  0  0  0
    2.1209    0.2579   -0.2276 P   0  0  0  0  0  0  0  0  0  0  0  0
    2.1513    1.0367   -2.0307 S   0  0  0  0  0  0  0  0  0  0  0  0
    1.3055    1.0653    0.8694 O   0  0  0  0  0  0  0  0  0  0  0  0
    1.2415    2.5034    0.8677 C   0  0  0  0  0  0  0  0  0  0  0  0
    2.5601    3.1379    1.2575 C   0  0  0  0  0  0  0  0  0  0  0  0
    1.2712   -1.6485    0.0021 S   0  0  0  0  0  0  0  0  0  0  0  0
   -0.1032   -1.5555   -1.2056 C   0  0  0  0  0  0  0  0  0  0  0  0
   -1.7242   -1.8902   -0.4813 S   0  0  0  0  0  0  0  0  0  0  0  0
   -2.2394    0.0684    0.1697 P   0  0  0  0  0  0  0  0  0  0  0  0
   -1.6991    1.5297   -1.0135 S   0  0  0  0  0  0  0  0  0  0  0  0
   -1.6337    0.2475    1.6164 O   0  0  0  0  0  0  0  0  0  0  0  0
   -1.9806   -0.6085    2.7385 C   0  0  0  0  0  0  0  0  0  0  0  0
   -0.7744   -1.4224    3.1598 C   0  0  0  0  0  0  0  0  0  0  0  0
   -3.7935   -0.0638    0.4882 O   0  0  0  0  0  0  0  0  0  0  0  0
   -4.8479    0.2329   -0.4454 C   0  0  0  0  0  0  0  0  0  0  0  0
   -4.9497   -0.7822   -1.5652 C   0  0  0  0  0  0  0  0  0  0  0  0
    4.0835   -1.8068   -1.4697 H   0  0  0  0  0  0  0  0  0  0  0  0
    5.8227   -1.7872   -1.1458 H   0  0  0  0  0  0  0  0  0  0  0  0
    4.6903   -2.2950    0.1199 H   0  0  0  0  0  0  0  0  0  0  0  0
    4.8250    0.5098   -1.0960 H   0  0  0  0  0  0  0  0  0  0  0  0
    5.5437    0.0542    0.4786 H   0  0  0  0  0  0  0  0  0  0  0  0
    0.9283    2.8345   -0.1289 H   0  0  0  0  0  0  0  0  0  0  0  0
    0.4505    2.7304    1.5845 H   0  0  0  0  0  0  0  0  0  0  0  0
    3.3129    2.9305    0.4979 H   0  0  0  0  0  0  0  0  0  0  0  0
    2.4270    4.2128    1.3353 H   0  0  0  0  0  0  0  0  0  0  0  0
    2.9015    2.7441    2.2111 H   0  0  0  0  0  0  0  0  0  0  0  0
    0.0598   -2.3325   -1.9478 H   0  0  0  0  0  0  0  0  0  0  0  0
   -0.1041   -0.5646   -1.6678 H   0  0  0  0  0  0  0  0  0  0  0  0
   -2.2941    0.0769    3.5279 H   0  0  0  0  0  0  0  0  0  0  0  0
   -2.8187   -1.2487    2.4563 H   0  0  0  0  0  0  0  0  0  0  0  0
    0.0735   -0.7653    3.3365 H   0  0  0  0  0  0  0  0  0  0  0  0
   -1.0101   -1.9583    4.0737 H   0  0  0  0  0  0  0  0  0  0  0  0
   -0.5022   -2.1381    2.3873 H   0  0  0  0  0  0  0  0  0  0  0  0
   -5.7455    0.2304    0.1760 H   0  0  0  0  0  0  0  0  0  0  0  0
   -4.6786    1.2359   -0.8483 H   0  0  0  0  0  0  0  0  0  0  0  0
   -5.0488   -1.7874   -1.1645 H   0  0  0  0  0  0  0  0  0  0  0  0
   -5.8212   -0.5490   -2.1697 H   0  0  0  0  0  0  0  0  0  0  0  0
   -4.0634   -0.7384   -2.1955 H   0  0  0  0  0  0  0  0  0  0  0  0
  1  2  1  0  0  0  0
  2  3  1  0  0  0  0
  3  4  2  0  0  0  0
  4  5  2  0  0  0  0
  4  6  2  0  0  0  0
  6  7  1  0  0  0  0
  7  8  1  0  0  0  0
  4  9  1  0  0  0  0
  9 10  1  0  0  0  0
 10 11  1  0  0  0  0
 11 12  1  0  0  0  0
 12 13  2  0  0  0  0
 12 14  2  0  0  0  0
 14 15  1  0  0  0  0
 15 16  1  0  0  0  0
 12 17  2  0  0  0  0
 17 18  1  0  0  0  0
 18 19  1  0  0  0  0
  1 20  1  0  0  0  0
  1 21  1  0  0  0  0
  1 22  1  0  0  0  0
  2 23  1  0  0  0  0
  2 24  1  0  0  0  0
  7 25  1  0  0  0  0
  7 26  1  0  0  0  0
  8 27  1  0  0  0  0
  8 28  1  0  0  0  0
  8 29  1  0  0  0  0
 10 30  1  0  0  0  0
 10 31  1  0  0  0  0
 15 32  1  0  0  0  0
 15 33  1  0  0  0  0
 16 34  1  0  0  0  0
 16 35  1  0  0  0  0
 16 36  1  0  0  0  0
 18 37  1  0  0  0  0
 18 38  1  0  0  0  0
 19 39  1  0  0  0  0
 19 40  1  0  0  0  0
 19 41  1  0  0  0  0
M  END
