 xtb: 6.7.1 (edcfbbe)
          04092507313D

 38 37  0     0  0            999 V2000
    3.4072   -3.3076    0.3449 C   0  0  0  0  0  0  0  0  0  0  0  0
    2.9012   -1.9770    0.8779 C   0  0  0  0  0  0  0  0  0  0  0  0
    2.7047   -1.0307   -0.1903 O   0  0  0  0  0  0  0  0  0  0  0  0
    1.6000   -1.0936   -0.9023 C   0  0  0  0  0  0  0  0  0  0  0  0
    0.6969   -1.8849   -0.7176 O   0  0  0  0  0  0  0  0  0  0  0  0
    1.5689   -0.0323   -1.9832 C   0  0  0  0  0  0  0  0  0  0  0  0
    0.3898    0.9184   -1.7595 C   0  0  0  0  0  0  0  0  0  0  0  0
    0.3398    1.6355   -2.5839 H   0  0  0  0  0  0  0  0  0  0  0  0
    0.4975    1.6878   -0.4578 C   0  0  0  0  0  0  0  0  0  0  0  0
   -0.4517    1.8256    0.2929 O   0  0  0  0  0  0  0  0  0  0  0  0
    1.6946    2.1524   -0.2476 O   0  0  0  0  0  0  0  0  0  0  0  0
    1.9452    2.8904    0.9693 C   0  0  0  0  0  0  0  0  0  0  0  0
    1.5465    4.3480    0.8125 C   0  0  0  0  0  0  0  0  0  0  0  0
   -1.2299    0.0707   -1.7825 S   0  0  0  0  0  0  0  0  0  0  0  0
   -1.6739   -0.3380    0.2583 P   0  0  0  0  0  0  0  0  0  0  0  0
   -0.4648   -0.6322    1.7897 S   0  0  0  0  0  0  0  0  0  0  0  0
   -2.9165    0.6063    0.5688 O   0  0  0  0  0  0  0  0  0  0  0  0
   -2.9620    1.6137    1.5778 C   0  0  0  0  0  0  0  0  0  0  0  0
   -2.6004   -1.6245    0.0112 O   0  0  0  0  0  0  0  0  0  0  0  0
   -2.0942   -2.9268   -0.2749 C   0  0  0  0  0  0  0  0  0  0  0  0
    3.6093   -3.9709    1.1792 H   0  0  0  0  0  0  0  0  0  0  0  0
    2.6560   -3.7657   -0.2945 H   0  0  0  0  0  0  0  0  0  0  0  0
    4.3193   -3.1589   -0.2265 H   0  0  0  0  0  0  0  0  0  0  0  0
    3.6372   -1.5005    1.5250 H   0  0  0  0  0  0  0  0  0  0  0  0
    1.9562   -2.0986    1.4159 H   0  0  0  0  0  0  0  0  0  0  0  0
    1.4347   -0.5266   -2.9456 H   0  0  0  0  0  0  0  0  0  0  0  0
    2.5029    0.5276   -1.9636 H   0  0  0  0  0  0  0  0  0  0  0  0
    1.3932    2.4137    1.7843 H   0  0  0  0  0  0  0  0  0  0  0  0
    3.0184    2.7835    1.1245 H   0  0  0  0  0  0  0  0  0  0  0  0
    2.0685    4.7905   -0.0312 H   0  0  0  0  0  0  0  0  0  0  0  0
    0.4741    4.4310    0.6521 H   0  0  0  0  0  0  0  0  0  0  0  0
    1.8073    4.8864    1.7175 H   0  0  0  0  0  0  0  0  0  0  0  0
   -2.2215    1.4095    2.3535 H   0  0  0  0  0  0  0  0  0  0  0  0
   -3.9665    1.5797    1.9936 H   0  0  0  0  0  0  0  0  0  0  0  0
   -2.7606    2.5830    1.1251 H   0  0  0  0  0  0  0  0  0  0  0  0
   -2.9477   -3.5948   -0.1906 H   0  0  0  0  0  0  0  0  0  0  0  0
   -1.3206   -3.1968    0.4454 H   0  0  0  0  0  0  0  0  0  0  0  0
   -1.6735   -2.9581   -1.2797 H   0  0  0  0  0  0  0  0  0  0  0  0
  1  2  1  0  0  0  0
  2  3  1  0  0  0  0
  3  4  1  0  0  0  0
  4  5  2  0  0  0  0
  4  6  1  0  0  0  0
  6  7  1  0  0  0  0
  7  8  1  0  0  0  0
  7  9  1  0  0  0  0
  9 10  2  0  0  0  0
  9 11  4  0  0  0  0
 11 12  1  0  0  0  0
 12 13  1  0  0  0  0
  7 14  1  0  0  0  0
 14 15  1  0  0  0  0
 15 16  2  0  0  0  0
 15 17  1  0  0  0  0
 17 18  1  0  0  0  0
 15 19  1  0  0  0  0
 19 20  1  0  0  0  0
  1 21  1  0  0  0  0
  1 22  1  0  0  0  0
  1 23  1  0  0  0  0
  2 24  1  0  0  0  0
  2 25  1  0  0  0  0
  6 26  1  0  0  0  0
  6 27  1  0  0  0  0
 12 28  1  0  0  0  0
 12 29  1  0  0  0  0
 13 30  1  0  0  0  0
 13 31  1  0  0  0  0
 13 32  1  0  0  0  0
 18 33  1  0  0  0  0
 18 34  1  0  0  0  0
 18 35  1  0  0  0  0
 20 36  1  0  0  0  0
 20 37  1  0  0  0  0
 20 38  1  0  0  0  0
M  END
