 xtb: 6.7.1 (edcfbbe)
          04092513573D

 41 40  0     0  0            999 V2000
    2.3247   -2.5425    2.4664 C   0  0  0  0  0  0  0  0  0  0  0  0
    1.3424   -1.6829    1.6953 C   0  0  0  0  0  0  0  0  0  0  0  0
    2.0356   -0.6298    0.9985 O   0  0  0  0  0  0  0  0  0  0  0  0
    2.3603   -0.7175   -0.5584 P   0  0  0  0  0  0  0  0  0  0  0  0
    2.9197   -2.4663   -1.2360 S   0  0  0  0  0  0  0  0  0  0  0  0
    3.3856    0.4793   -0.7292 O   0  0  0  0  0  0  0  0  0  0  0  0
    4.8124    0.2613   -0.6354 C   0  0  0  0  0  0  0  0  0  0  0  0
    5.2459   -0.0623    0.7791 C   0  0  0  0  0  0  0  0  0  0  0  0
    0.6510    0.0735   -1.5315 S   0  0  0  0  0  0  0  0  0  0  0  0
    0.3088    1.5215   -0.4757 C   0  0  0  0  0  0  0  0  0  0  0  0
   -0.7291    1.1516    0.9583 S   0  0  0  0  0  0  0  0  0  0  0  0
   -2.5663    0.8892   -0.0965 P   0  0  0  0  0  0  0  0  0  0  0  0
   -2.9029    2.1434   -1.5559 S   0  0  0  0  0  0  0  0  0  0  0  0
   -3.6549    0.8317    1.0625 O   0  0  0  0  0  0  0  0  0  0  0  0
   -4.3852    1.9805    1.5327 C   0  0  0  0  0  0  0  0  0  0  0  0
   -3.5174    2.9339    2.3278 C   0  0  0  0  0  0  0  0  0  0  0  0
   -2.5497   -0.6079   -0.5955 O   0  0  0  0  0  0  0  0  0  0  0  0
   -2.4238   -1.7337    0.3089 C   0  0  0  0  0  0  0  0  0  0  0  0
   -1.8416   -2.8956   -0.4692 C   0  0  0  0  0  0  0  0  0  0  0  0
    2.9110   -1.9271    3.1426 H   0  0  0  0  0  0  0  0  0  0  0  0
    1.7754   -3.2828    3.0390 H   0  0  0  0  0  0  0  0  0  0  0  0
    2.9932   -3.0547    1.7773 H   0  0  0  0  0  0  0  0  0  0  0  0
    0.6486   -1.1685    2.3632 H   0  0  0  0  0  0  0  0  0  0  0  0
    0.7877   -2.2907    0.9749 H   0  0  0  0  0  0  0  0  0  0  0  0
    5.0836   -0.5516   -1.3166 H   0  0  0  0  0  0  0  0  0  0  0  0
    5.2439    1.1991   -0.9878 H   0  0  0  0  0  0  0  0  0  0  0  0
    4.8963    0.7030    1.4668 H   0  0  0  0  0  0  0  0  0  0  0  0
    4.8366   -1.0245    1.0815 H   0  0  0  0  0  0  0  0  0  0  0  0
    6.3299   -0.1137    0.8173 H   0  0  0  0  0  0  0  0  0  0  0  0
   -0.2139    2.2348   -1.1141 H   0  0  0  0  0  0  0  0  0  0  0  0
    1.2452    1.9275   -0.1047 H   0  0  0  0  0  0  0  0  0  0  0  0
   -4.8251    2.4877    0.6686 H   0  0  0  0  0  0  0  0  0  0  0  0
   -5.1746    1.5480    2.1497 H   0  0  0  0  0  0  0  0  0  0  0  0
   -2.7738    3.3937    1.6792 H   0  0  0  0  0  0  0  0  0  0  0  0
   -4.1444    3.7129    2.7504 H   0  0  0  0  0  0  0  0  0  0  0  0
   -3.0087    2.4063    3.1302 H   0  0  0  0  0  0  0  0  0  0  0  0
   -1.7791   -1.4417    1.1435 H   0  0  0  0  0  0  0  0  0  0  0  0
   -3.4200   -1.9656    0.6901 H   0  0  0  0  0  0  0  0  0  0  0  0
   -1.7288   -3.7499    0.1907 H   0  0  0  0  0  0  0  0  0  0  0  0
   -2.4992   -3.1599   -1.2921 H   0  0  0  0  0  0  0  0  0  0  0  0
   -0.8712   -2.6289   -0.8842 H   0  0  0  0  0  0  0  0  0  0  0  0
  1  2  1  0  0  0  0
  2  3  1  0  0  0  0
  3  4  2  0  0  0  0
  4  5  2  0  0  0  0
  4  6  2  0  0  0  0
  6  7  1  0  0  0  0
  7  8  1  0  0  0  0
  4  9  1  0  0  0  0
  9 10  1  0  0  0  0
 10 11  1  0  0  0  0
 11 12  1  0  0  0  0
 12 13  2  0  0  0  0
 12 14  2  0  0  0  0
 14 15  1  0  0  0  0
 15 16  1  0  0  0  0
 12 17  2  0  0  0  0
 17 18  1  0  0  0  0
 18 19  1  0  0  0  0
  1 20  1  0  0  0  0
  1 21  1  0  0  0  0
  1 22  1  0  0  0  0
  2 23  1  0  0  0  0
  2 24  1  0  0  0  0
  7 25  1  0  0  0  0
  7 26  1  0  0  0  0
  8 27  1  0  0  0  0
  8 28  1  0  0  0  0
  8 29  1  0  0  0  0
 10 30  1  0  0  0  0
 10 31  1  0  0  0  0
 15 32  1  0  0  0  0
 15 33  1  0  0  0  0
 16 34  1  0  0  0  0
 16 35  1  0  0  0  0
 16 36  1  0  0  0  0
 18 37  1  0  0  0  0
 18 38  1  0  0  0  0
 19 39  1  0  0  0  0
 19 40  1  0  0  0  0
 19 41  1  0  0  0  0
M  END
