41
 xtb: 6.7.1 (edcfbbe)
C            2.96330944433364       -2.60348233858943       -2.41875997796833
C            2.87666148202187       -2.28035751854575       -0.95028302749967
O            3.44561734050950       -0.93260914496322       -0.73001566918212
P            2.62840316242087        0.20399614409155        0.05958977639638
S            3.74212720900881        1.74743855743299        0.46381403159729
O            1.90192022923470       -0.50079487718307        1.31021446744614
C            2.53993259333068       -0.60544446999892        2.63128917969909
C            3.60161788671477       -1.67718336453022        2.65075072986180
S            0.98481344257938        0.49504694394531       -1.24558198964286
C            0.05232911354744        1.78748737656512       -0.33058602774728
S           -1.05770140911053        1.23358317758263        1.01959661838875
P           -2.61858403344798        0.24164010912854       -0.04392227275684
S           -2.66226604063342        0.61307845284886       -1.95493248178112
O           -3.93400584608472        0.59841668043740        0.80844068751053
C           -4.84345044225012        1.68772025555148        0.42670405021338
C           -4.28523241528414        3.04876924774500        0.76097878831778
O           -2.53798998736718       -1.29172794206613        0.43597174041529
C           -1.32426488017797       -2.11008424758651        0.30471117223859
C           -1.24918309070389       -2.79083839093234       -1.03975441962723
H            2.59853723015566       -3.62317687912040       -2.57859133997373
H            2.34690084385276       -1.92108240072838       -3.01141163023454
H            3.99701802051477       -2.54833732244505       -2.77101453264443
H            3.48218596279803       -2.95902862562644       -0.34457775064392
H            1.84435745404065       -2.31050130051293       -0.58794841666549
H            2.93982146596462        0.37738523114916        2.89868192038212
H            1.70899162183135       -0.84655780986536        3.29739302905653
H            3.97352310789397       -1.78344672479272        3.67502374120855
H            3.19027291593980       -2.63952971242206        2.33279185281293
H            4.44798221426037       -1.41796173010766        2.00760450009771
H           -0.53582495144540        2.31614436141002       -1.08420687388489
H            0.75578930406660        2.48867837573050        0.13075923658079
H           -5.06956777383885        1.58857041419136       -0.63901615590282
H           -5.74556976931399        1.47304177942929        1.00272985141953
H           -3.41386248964006        3.29246814750706        0.14665167065610
H           -5.06086350524097        3.79582363429568        0.56288548947495
H           -4.00707409637555        3.11257202660342        1.81675072060862
H           -0.44946123165682       -1.48039797977840        0.49648272789426
H           -1.41464373248658       -2.83568926721700        1.11609147719580
H           -0.40710736901712       -3.49115938717447       -1.02650958050882
H           -2.16232383425782       -3.35890342442632       -1.24054824034413
H           -1.08783276731333       -2.07287942804842       -1.84752241379140
