41
 xtb: 6.7.1 (edcfbbe)
C            1.31479449068194       -2.58657967497130        1.97866398337799
C            2.25917716089390       -1.42493165871476        1.80808744600280
O            1.62398564296081       -0.43936112603745        0.91497848202526
P            2.38525993904397        0.09156295901846       -0.39757708712108
S            3.08919069008591       -1.24783490915798       -1.61988376506072
O            3.54851298879407        1.07496042689323        0.12545675316125
C            3.28900466527099        2.05640598514812        1.19754946983313
C            4.62342521146618        2.60999633267274        1.62242216548316
S            0.94275770902553        1.43424791407358       -1.17939885973355
C           -0.01894254008862        0.32514427966645       -2.28462543370647
S           -0.95578342349638       -1.05969162581115       -1.52710894134537
P           -2.32934468280899       -0.01251160234993       -0.30197682750135
S           -3.08417598656788        1.62309412722776       -1.04201276075086
O           -1.47234691124377        0.11494616807345        1.04848467970023
C           -1.90794505203603        0.96482750157791        2.16597261536706
C           -0.71081619309981        1.15849825534751        3.06139503032494
O           -3.36299795221943       -1.18090210529720        0.09940955994340
C           -4.64093242350672       -1.39687463549680       -0.59389841800069
C           -4.46201356408866       -2.16212414328836       -1.88147238177404
H            0.34897430001536       -2.24866874200197        2.36654281581808
H            1.15504068086055       -3.10189613125997        1.02713033809078
H            1.74513040010482       -3.29679228018604        2.69184153690944
H            3.21807090146909       -1.74164678546546        1.38594333940838
H            2.44144348944674       -0.89879040707715        2.74937619627462
H            2.63870259553593        2.84091311063900        0.79603665354140
H            2.78104250835936        1.54778815811499        2.02183359718208
H            5.12742064554521        3.10450967189353        0.78764865640097
H            4.46314052824338        3.34667316974754        2.41561032110292
H            5.26700558779197        1.81642130622822        2.01232698358612
H            0.65609159466719       -0.14765980585466       -3.00375938452741
H           -0.70956054112817        0.98889446071312       -2.81324852410633
H           -2.26820792763637        1.91552698139572        1.76120543029593
H           -2.72908844900015        0.45292664556515        2.67755079087297
H            0.08952198410393        1.68471250815122        2.53226812624895
H           -1.00835363898730        1.75878555321639        3.92672684786655
H           -0.32915011456638        0.19843321572658        3.42159499600038
H           -5.23099117052259       -1.96168816694669        0.13055595004565
H           -5.11235148832643       -0.42318758725761       -0.75716032716812
H           -3.93060298643891       -3.10249347182007       -1.70836630100692
H           -5.45191763926085       -2.39574752481345       -2.28703988871690
H           -3.91831975238918       -1.57620044658587       -2.62778267450811
