  17
 
 C         -2.4611972864       -1.1601010621        0.2490463969
 C         -1.6653582529        0.1138183845        0.2793992455
 O         -2.2139389065        1.1993999883        0.4074143253
 C         -0.1946817370        0.0116519467        0.1467875522
 C          0.5489186202        1.1943705218        0.1539314977
 C          1.9238929890        1.1651776609        0.0322253774
 C          2.5786185987       -0.0498185308       -0.0980809937
 C          1.8519191193       -1.2304945808       -0.1053598067
 C          0.4749744714       -1.2059597509        0.0155343872
 H         -2.2930008673       -1.6792464695       -0.6907048891
 H         -3.5172859821       -0.9239376018        0.3500329156
 H         -2.1544221225       -1.8079171473        1.0660877826
 H          0.0176034195        2.1294481802        0.2565391945
 H          2.4849265773        2.0869385844        0.0387875820
 H          3.6532289127       -0.0762510473       -0.1935447144
 H          2.3630764302       -2.1755277918       -0.2060698363
 H         -0.0713877047       -2.1345758657        0.0079523160
          17
        -25.25317213
 C         -2.4723064509       -1.1798330790        0.0001453733
 C         -1.6877162669        0.1015843346       -0.0002442834
 O         -2.2499720682        1.1879127984        0.0000912005
 C         -0.2104427088        0.0056687382       -0.0000410046
 C          0.4732702402       -1.2111839224       -0.0000826915
 C          1.8555870546       -1.2297948019        0.0000063722
 C          2.5739129626       -0.0439203119        0.0000850908
 C          1.9051668897        1.1704030921       -0.0000398753
 C          0.5246731784        1.1936974003       -0.0000296112
 H         -2.2266224193       -1.7642384336        0.8830882732
 H         -2.2286416167       -1.7630131130       -0.8841770553
 H         -3.5343570004       -0.9487295909        0.0014906983
 H         -0.0662001398       -2.1439063285       -0.0002724682
 H          2.3775506340       -2.1743093163        0.0000476353
 H          3.6528203143       -0.0659008764        0.0004473713
 H          2.4594597761        2.0962648058        0.0002541298
 H         -0.0174198787        2.1282318389        0.0000645741
