 xtb: 6.7.1 (edcfbbe)
          04092505203D

 41 40  0     0  0            999 V2000
    4.4311   -1.6094   -1.0433 C   0  0  0  0  0  0  0  0  0  0  0  0
    4.6320   -0.1340   -0.7640 C   0  0  0  0  0  0  0  0  0  0  0  0
    3.5785    0.4254    0.0408 O   0  0  0  0  0  0  0  0  0  0  0  0
    2.0714    0.5468   -0.4678 P   0  0  0  0  0  0  0  0  0  0  0  0
    1.8782    1.0070   -2.3571 S   0  0  0  0  0  0  0  0  0  0  0  0
    1.5196    1.6411    0.5249 O   0  0  0  0  0  0  0  0  0  0  0  0
    1.7270    1.5569    1.9579 C   0  0  0  0  0  0  0  0  0  0  0  0
    0.8711    2.6231    2.6075 C   0  0  0  0  0  0  0  0  0  0  0  0
    1.2297   -1.3043    0.1549 S   0  0  0  0  0  0  0  0  0  0  0  0
    0.0401   -1.6028   -1.1935 C   0  0  0  0  0  0  0  0  0  0  0  0
   -1.6281   -1.9096   -0.5899 S   0  0  0  0  0  0  0  0  0  0  0  0
   -1.9898    0.0242    0.2262 P   0  0  0  0  0  0  0  0  0  0  0  0
   -1.4024    1.5033   -0.9239 S   0  0  0  0  0  0  0  0  0  0  0  0
   -1.2779    0.1561    1.6275 O   0  0  0  0  0  0  0  0  0  0  0  0
   -1.6723   -0.4939    2.8640 C   0  0  0  0  0  0  0  0  0  0  0  0
   -1.4215   -1.9878    2.8450 C   0  0  0  0  0  0  0  0  0  0  0  0
   -3.5169   -0.0418    0.6528 O   0  0  0  0  0  0  0  0  0  0  0  0
   -4.5872   -0.5357   -0.1739 C   0  0  0  0  0  0  0  0  0  0  0  0
   -4.6815    0.1856   -1.5016 C   0  0  0  0  0  0  0  0  0  0  0  0
    4.2578   -2.1519   -0.1174 H   0  0  0  0  0  0  0  0  0  0  0  0
    3.5758   -1.7479   -1.7028 H   0  0  0  0  0  0  0  0  0  0  0  0
    5.3168   -2.0017   -1.5325 H   0  0  0  0  0  0  0  0  0  0  0  0
    4.6833    0.4298   -1.7004 H   0  0  0  0  0  0  0  0  0  0  0  0
    5.5300    0.0458   -0.1711 H   0  0  0  0  0  0  0  0  0  0  0  0
    1.4406    0.5532    2.2865 H   0  0  0  0  0  0  0  0  0  0  0  0
    2.7896    1.7132    2.1544 H   0  0  0  0  0  0  0  0  0  0  0  0
    0.9980    2.5782    3.6843 H   0  0  0  0  0  0  0  0  0  0  0  0
    1.1642    3.6053    2.2476 H   0  0  0  0  0  0  0  0  0  0  0  0
   -0.1739    2.4619    2.3542 H   0  0  0  0  0  0  0  0  0  0  0  0
    0.3398   -2.5039   -1.7225 H   0  0  0  0  0  0  0  0  0  0  0  0
    0.0469   -0.7332   -1.8571 H   0  0  0  0  0  0  0  0  0  0  0  0
   -1.0526    0.0045    3.6115 H   0  0  0  0  0  0  0  0  0  0  0  0
   -2.7247   -0.2711    3.0463 H   0  0  0  0  0  0  0  0  0  0  0  0
   -0.4018   -2.1977    2.5288 H   0  0  0  0  0  0  0  0  0  0  0  0
   -1.5714   -2.3793    3.8464 H   0  0  0  0  0  0  0  0  0  0  0  0
   -2.1077   -2.4865    2.1649 H   0  0  0  0  0  0  0  0  0  0  0  0
   -4.4336   -1.6073   -0.3268 H   0  0  0  0  0  0  0  0  0  0  0  0
   -5.4780   -0.3691    0.4344 H   0  0  0  0  0  0  0  0  0  0  0  0
   -5.5451   -0.1767   -2.0497 H   0  0  0  0  0  0  0  0  0  0  0  0
   -4.7755    1.2578   -1.3463 H   0  0  0  0  0  0  0  0  0  0  0  0
   -3.7843    0.0048   -2.0923 H   0  0  0  0  0  0  0  0  0  0  0  0
  1  2  1  0  0  0  0
  2  3  1  0  0  0  0
  3  4  2  0  0  0  0
  4  5  2  0  0  0  0
  4  6  2  0  0  0  0
  6  7  1  0  0  0  0
  7  8  1  0  0  0  0
  4  9  1  0  0  0  0
  9 10  1  0  0  0  0
 10 11  1  0  0  0  0
 11 12  1  0  0  0  0
 12 13  2  0  0  0  0
 12 14  2  0  0  0  0
 14 15  1  0  0  0  0
 15 16  1  0  0  0  0
 12 17  2  0  0  0  0
 17 18  1  0  0  0  0
 18 19  1  0  0  0  0
  1 20  1  0  0  0  0
  1 21  1  0  0  0  0
  1 22  1  0  0  0  0
  2 23  1  0  0  0  0
  2 24  1  0  0  0  0
  7 25  1  0  0  0  0
  7 26  1  0  0  0  0
  8 27  1  0  0  0  0
  8 28  1  0  0  0  0
  8 29  1  0  0  0  0
 10 30  1  0  0  0  0
 10 31  1  0  0  0  0
 15 32  1  0  0  0  0
 15 33  1  0  0  0  0
 16 34  1  0  0  0  0
 16 35  1  0  0  0  0
 16 36  1  0  0  0  0
 18 37  1  0  0  0  0
 18 38  1  0  0  0  0
 19 39  1  0  0  0  0
 19 40  1  0  0  0  0
 19 41  1  0  0  0  0
M  END
