38
 xtb: 6.7.1 (edcfbbe)
C            5.04349839968684       -1.20126525301724        0.52327605183273
C            4.51690537861487       -2.23787615422056       -0.44158531859426
O            3.04995188551269       -2.23438495650585       -0.44946612453766
C            2.45049012550193       -1.30179845907281       -1.20460636150741
O            3.04268182513263       -0.50700158235005       -1.91445190481286
C            0.94732230094817       -1.39930152624329       -1.11292711185734
C            0.30721361833367       -0.01705312286731       -1.15856060433380
H            0.64060375266058        0.51280523917547       -2.06108886553244
C            0.75527056404428        0.84526970192619        0.01308110098782
O            1.68928773353359        0.53491340608544        0.72877146931308
O            0.05900697479321        1.97456199894272        0.10587827717387
C            0.40669287443291        2.88849359773929        1.20107661667648
C            1.56654291835172        3.77320812940258        0.81333812433594
S           -1.53002120494776       -0.10468267059295       -1.40549875329767
P           -2.33380624044140       -0.25659773560081        0.55595653495125
S           -1.28848463779245       -1.22412436703009        1.87274462601477
O           -2.69603223369349        1.21387999809007        1.08405508161458
C           -3.36640283043570        2.19437662616810        0.23792608258129
O           -3.79997722635777       -0.81312289068648        0.18111065614952
C           -3.98707272527471       -2.22075487962375       -0.14396845259076
H            4.77871044432893       -0.18862921071558        0.20773987563857
H            4.65206617664288       -1.37497606621509        1.52967988905321
H            6.13494542992160       -1.27452866422438        0.56233645888682
H            4.77251578290428       -3.25008341593457       -0.12381775729354
H            4.87425338639139       -2.07738834996403       -1.46150712349484
H            0.65271662145048       -1.94027267855077       -0.21267014458736
H            0.61695950949294       -1.97697572429788       -1.98363832567746
H           -0.50895942137464        3.46338504151566        1.35271279129730
H            0.61370763714842        2.29206202796719        2.09316356673264
H            1.33340983416577        4.34382472679188       -0.08990143744221
H            1.75788973152351        4.48106117183779        1.62588150505481
H            2.47524436409191        3.18992644953465        0.64433844224255
H           -3.56247986848664        3.04797736554250        0.88670011424625
H           -4.30649628581759        1.79047014008626       -0.14568088025067
H           -2.70878394074905        2.48852894641306       -0.58372695148037
H           -3.75321620483098       -2.83639112225681        0.72794038975244
H           -3.35934628078030       -2.50578830149473       -0.99278829495044
H           -5.03972487308680       -2.32153812567032       -0.40764120240108
