41
 xtb: 6.7.1 (edcfbbe)
C            2.82026765538977        2.68642036712476       -0.79598808595975
C            3.37693932805435        1.32098659118208       -1.10624335358559
O            2.31446454857782        0.31671830237395       -0.90859980114690
P            2.44516404233227       -0.78904325968105        0.24783269194783
S            2.98017606551777       -0.17226399433411        2.01830347478194
O            3.40920992903016       -1.86380519064283       -0.46845280753308
C            4.20989996244163       -2.84352470834769        0.27980686243075
C            3.38110665026325       -4.00801578004023        0.76135097550574
S            0.55267609237249       -1.71962490562838        0.10938934643902
C           -0.39236537037422       -0.76690001294047        1.36658657602765
S           -0.66371835784271        1.02378476393211        1.07677917215723
P           -2.22964779816101        0.97399449437851       -0.34917637038902
S           -1.81783721908236        0.52074327457066       -2.19822253331119
O           -2.70099891046631        2.49241590202409       -0.07681023241535
C           -3.52262787047126        3.22517888920014       -1.05173003888654
C           -4.93113590616580        2.68674880327106       -1.11509656906926
O           -3.33361118742523        0.04901061873085        0.37164506575701
C           -4.15051509637143       -0.96084128909163       -0.31524428216315
C           -3.62517531919069       -2.34159669000288       -0.01846166398894
H            2.53870157303081        2.76401175844370        0.25789225150034
H            3.58475745635468        3.44099504599076       -1.00812915894460
H            1.94433558542714        2.89878504926229       -1.41606346714072
H            4.23604060877470        1.07766325431751       -0.47380360920379
H            3.67049830660984        1.22391389459991       -2.15432704541338
H            4.96341688823392       -3.15975355357510       -0.44426330601782
H            4.70427724331788       -2.32272635023211        1.10518047133979
H            2.65732794031371       -3.70273307486229        1.52217916794691
H            2.84863652337773       -4.48150420799465       -0.06861582205073
H            4.05200968622352       -4.74916272826115        1.20806736635835
H            0.13799613296789       -0.82164449122574        2.32113594304327
H           -1.35425514374834       -1.27868669459221        1.46434468875183
H           -3.49978860457298        4.25191814338711       -0.68183221743322
H           -3.02201076756087        3.18356589598430       -2.02399126855118
H           -5.39284295506035        2.67706443813513       -0.12345481140902
H           -5.52474820176515        3.33693444515966       -1.76601570763627
H           -4.95943511673394        1.67548119951196       -1.53286476406099
H           -5.15717066934996       -0.81343998083232        0.08349665866060
H           -4.15463894800146       -0.74874052963409       -1.38754895268368
H           -4.29722863917058       -3.08050189500806       -0.46724546631472
H           -2.62733956004218       -2.48386583636212       -0.44544944456814
H           -3.58411333556694       -2.52441855548853        1.05931204355817
