 xtb: 6.7.1 (edcfbbe)
          04092507313D

 38 37  0     0  0            999 V2000
    4.2480   -1.9880    1.1717 C   0  0  0  0  0  0  0  0  0  0  0  0
    2.7727   -1.9494    0.8273 C   0  0  0  0  0  0  0  0  0  0  0  0
    2.5978   -1.0519   -0.2881 O   0  0  0  0  0  0  0  0  0  0  0  0
    1.4582   -1.0641   -0.9331 C   0  0  0  0  0  0  0  0  0  0  0  0
    0.5117   -1.7781   -0.6479 O   0  0  0  0  0  0  0  0  0  0  0  0
    1.4306   -0.0811   -2.0827 C   0  0  0  0  0  0  0  0  0  0  0  0
    0.2685    0.9011   -1.9041 C   0  0  0  0  0  0  0  0  0  0  0  0
    0.1914    1.5398   -2.7885 H   0  0  0  0  0  0  0  0  0  0  0  0
    0.4409    1.7825   -0.6784 C   0  0  0  0  0  0  0  0  0  0  0  0
   -0.4517    1.9629    0.1260 O   0  0  0  0  0  0  0  0  0  0  0  0
    1.6366    2.3007   -0.6159 O   0  0  0  0  0  0  0  0  0  0  0  0
    1.9966    3.0868    0.5416 C   0  0  0  0  0  0  0  0  0  0  0  0
    2.5910    2.1920    1.6162 C   0  0  0  0  0  0  0  0  0  0  0  0
   -1.3535    0.0764   -1.7956 S   0  0  0  0  0  0  0  0  0  0  0  0
   -1.5767   -0.3583    0.2672 P   0  0  0  0  0  0  0  0  0  0  0  0
   -0.3964   -0.3381    1.8343 S   0  0  0  0  0  0  0  0  0  0  0  0
   -2.8797    0.5853    0.4379 O   0  0  0  0  0  0  0  0  0  0  0  0
   -3.4525    0.8249    1.7231 C   0  0  0  0  0  0  0  0  0  0  0  0
   -2.2010   -1.8362    0.2570 O   0  0  0  0  0  0  0  0  0  0  0  0
   -3.1014   -2.2926   -0.7607 C   0  0  0  0  0  0  0  0  0  0  0  0
    4.5898   -0.9987    1.4590 H   0  0  0  0  0  0  0  0  0  0  0  0
    4.3999   -2.6708    2.0006 H   0  0  0  0  0  0  0  0  0  0  0  0
    4.8230   -2.3277    0.3154 H   0  0  0  0  0  0  0  0  0  0  0  0
    2.1657   -1.5795    1.6598 H   0  0  0  0  0  0  0  0  0  0  0  0
    2.3907   -2.9335    0.5382 H   0  0  0  0  0  0  0  0  0  0  0  0
    1.2721   -0.6396   -3.0060 H   0  0  0  0  0  0  0  0  0  0  0  0
    2.3742    0.4618   -2.1195 H   0  0  0  0  0  0  0  0  0  0  0  0
    2.7283    3.8010    0.1640 H   0  0  0  0  0  0  0  0  0  0  0  0
    1.1057    3.6019    0.9093 H   0  0  0  0  0  0  0  0  0  0  0  0
    1.8461    1.4792    1.9687 H   0  0  0  0  0  0  0  0  0  0  0  0
    3.4400    1.6439    1.2171 H   0  0  0  0  0  0  0  0  0  0  0  0
    2.9151    2.8008    2.4533 H   0  0  0  0  0  0  0  0  0  0  0  0
   -2.7314    1.3394    2.3598 H   0  0  0  0  0  0  0  0  0  0  0  0
   -3.7459   -0.1150    2.1947 H   0  0  0  0  0  0  0  0  0  0  0  0
   -4.3202    1.4536    1.5410 H   0  0  0  0  0  0  0  0  0  0  0  0
   -2.5261   -2.6499   -1.6139 H   0  0  0  0  0  0  0  0  0  0  0  0
   -3.7706   -1.4888   -1.0717 H   0  0  0  0  0  0  0  0  0  0  0  0
   -3.6628   -3.1075   -0.3096 H   0  0  0  0  0  0  0  0  0  0  0  0
  1  2  1  0  0  0  0
  2  3  1  0  0  0  0
  3  4  4  0  0  0  0
  4  5  2  0  0  0  0
  4  6  1  0  0  0  0
  6  7  1  0  0  0  0
  7  8  1  0  0  0  0
  7  9  1  0  0  0  0
  9 10  2  0  0  0  0
  9 11  4  0  0  0  0
 11 12  1  0  0  0  0
 12 13  1  0  0  0  0
  7 14  1  0  0  0  0
 14 15  1  0  0  0  0
 15 16  2  0  0  0  0
 15 17  1  0  0  0  0
 17 18  1  0  0  0  0
 15 19  1  0  0  0  0
 19 20  1  0  0  0  0
  1 21  1  0  0  0  0
  1 22  1  0  0  0  0
  1 23  1  0  0  0  0
  2 24  1  0  0  0  0
  2 25  1  0  0  0  0
  6 26  1  0  0  0  0
  6 27  1  0  0  0  0
 12 28  1  0  0  0  0
 12 29  1  0  0  0  0
 13 30  1  0  0  0  0
 13 31  1  0  0  0  0
 13 32  1  0  0  0  0
 18 33  1  0  0  0  0
 18 34  1  0  0  0  0
 18 35  1  0  0  0  0
 20 36  1  0  0  0  0
 20 37  1  0  0  0  0
 20 38  1  0  0  0  0
M  END
