 xtb: 6.7.1 (edcfbbe)
          04092505203D

 41 40  0     0  0            999 V2000
    2.5034    1.3223    3.0271 C   0  0  0  0  0  0  0  0  0  0  0  0
    1.1947    1.3613    2.2663 C   0  0  0  0  0  0  0  0  0  0  0  0
    1.3805    1.0459    0.8758 O   0  0  0  0  0  0  0  0  0  0  0  0
    1.7552   -0.4070    0.3808 P   0  0  0  0  0  0  0  0  0  0  0  0
    1.1144   -1.9187    1.4591 S   0  0  0  0  0  0  0  0  0  0  0  0
    3.3387   -0.2510    0.2782 O   0  0  0  0  0  0  0  0  0  0  0  0
    4.1985   -1.2909   -0.2233 C   0  0  0  0  0  0  0  0  0  0  0  0
    4.7102   -2.1719    0.9007 C   0  0  0  0  0  0  0  0  0  0  0  0
    1.2102   -0.4095   -1.6585 S   0  0  0  0  0  0  0  0  0  0  0  0
   -0.1999   -1.5546   -1.6277 C   0  0  0  0  0  0  0  0  0  0  0  0
   -1.8094   -0.8040   -2.0286 S   0  0  0  0  0  0  0  0  0  0  0  0
   -2.0176    0.5940   -0.4472 P   0  0  0  0  0  0  0  0  0  0  0  0
   -3.8324    1.2892   -0.2165 S   0  0  0  0  0  0  0  0  0  0  0  0
   -0.8653    1.6598   -0.6917 O   0  0  0  0  0  0  0  0  0  0  0  0
   -0.8434    2.4845   -1.8736 C   0  0  0  0  0  0  0  0  0  0  0  0
   -1.5454    3.8063   -1.6331 C   0  0  0  0  0  0  0  0  0  0  0  0
   -1.3668   -0.0792    0.8371 O   0  0  0  0  0  0  0  0  0  0  0  0
   -2.2056   -0.7399    1.8056 C   0  0  0  0  0  0  0  0  0  0  0  0
   -2.7062   -2.0795    1.3047 C   0  0  0  0  0  0  0  0  0  0  0  0
    2.3374    1.6490    4.0490 H   0  0  0  0  0  0  0  0  0  0  0  0
    2.8926    0.3046    3.0376 H   0  0  0  0  0  0  0  0  0  0  0  0
    3.2330    1.9717    2.5506 H   0  0  0  0  0  0  0  0  0  0  0  0
    0.7560    2.3601    2.2537 H   0  0  0  0  0  0  0  0  0  0  0  0
    0.4766    0.6534    2.6917 H   0  0  0  0  0  0  0  0  0  0  0  0
    3.6562   -1.8803   -0.9687 H   0  0  0  0  0  0  0  0  0  0  0  0
    5.0163   -0.7567   -0.7106 H   0  0  0  0  0  0  0  0  0  0  0  0
    5.2277   -1.5694    1.6422 H   0  0  0  0  0  0  0  0  0  0  0  0
    3.8847   -2.6903    1.3833 H   0  0  0  0  0  0  0  0  0  0  0  0
    5.3976   -2.9060    0.4932 H   0  0  0  0  0  0  0  0  0  0  0  0
   -0.2390   -2.0266   -0.6430 H   0  0  0  0  0  0  0  0  0  0  0  0
   -0.0438   -2.2927   -2.4104 H   0  0  0  0  0  0  0  0  0  0  0  0
    0.2186    2.6285   -2.0861 H   0  0  0  0  0  0  0  0  0  0  0  0
   -1.3075    1.9402   -2.7039 H   0  0  0  0  0  0  0  0  0  0  0  0
   -2.5970    3.6398   -1.4093 H   0  0  0  0  0  0  0  0  0  0  0  0
   -1.0885    4.3258   -0.7955 H   0  0  0  0  0  0  0  0  0  0  0  0
   -1.4647    4.4194   -2.5249 H   0  0  0  0  0  0  0  0  0  0  0  0
   -1.5646   -0.8624    2.6802 H   0  0  0  0  0  0  0  0  0  0  0  0
   -3.0434   -0.0772    2.0438 H   0  0  0  0  0  0  0  0  0  0  0  0
   -3.3280   -2.5329    2.0699 H   0  0  0  0  0  0  0  0  0  0  0  0
   -3.3007   -1.9419    0.4019 H   0  0  0  0  0  0  0  0  0  0  0  0
   -1.8699   -2.7415    1.0923 H   0  0  0  0  0  0  0  0  0  0  0  0
  1  2  1  0  0  0  0
  2  3  1  0  0  0  0
  3  4  2  0  0  0  0
  4  5  2  0  0  0  0
  4  6  2  0  0  0  0
  6  7  1  0  0  0  0
  7  8  1  0  0  0  0
  4  9  1  0  0  0  0
  9 10  1  0  0  0  0
 10 11  1  0  0  0  0
 11 12  1  0  0  0  0
 12 13  2  0  0  0  0
 12 14  2  0  0  0  0
 14 15  1  0  0  0  0
 15 16  1  0  0  0  0
 12 17  2  0  0  0  0
 17 18  1  0  0  0  0
 18 19  1  0  0  0  0
  1 20  1  0  0  0  0
  1 21  1  0  0  0  0
  1 22  1  0  0  0  0
  2 23  1  0  0  0  0
  2 24  1  0  0  0  0
  7 25  1  0  0  0  0
  7 26  1  0  0  0  0
  8 27  1  0  0  0  0
  8 28  1  0  0  0  0
  8 29  1  0  0  0  0
 10 30  1  0  0  0  0
 10 31  1  0  0  0  0
 15 32  1  0  0  0  0
 15 33  1  0  0  0  0
 16 34  1  0  0  0  0
 16 35  1  0  0  0  0
 16 36  1  0  0  0  0
 18 37  1  0  0  0  0
 18 38  1  0  0  0  0
 19 39  1  0  0  0  0
 19 40  1  0  0  0  0
 19 41  1  0  0  0  0
M  END
