 xtb: 6.7.1 (edcfbbe)
          04092507313D

 38 37  0     0  0            999 V2000
    2.8687   -4.2989    0.7570 C   0  0  0  0  0  0  0  0  0  0  0  0
    2.7460   -3.6292   -0.6021 C   0  0  0  0  0  0  0  0  0  0  0  0
    2.8978   -2.1999   -0.4861 O   0  0  0  0  0  0  0  0  0  0  0  0
    1.8378   -1.4729   -0.2150 C   0  0  0  0  0  0  0  0  0  0  0  0
    0.7155   -1.9243   -0.0847 O   0  0  0  0  0  0  0  0  0  0  0  0
    2.1799   -0.0076   -0.0835 C   0  0  0  0  0  0  0  0  0  0  0  0
    0.9416    0.8541   -0.2601 C   0  0  0  0  0  0  0  0  0  0  0  0
    0.4290    0.6065   -1.2016 H   0  0  0  0  0  0  0  0  0  0  0  0
    1.2560    2.3418   -0.2649 C   0  0  0  0  0  0  0  0  0  0  0  0
    2.3739    2.7889   -0.1619 O   0  0  0  0  0  0  0  0  0  0  0  0
    0.1609    3.0534   -0.4211 O   0  0  0  0  0  0  0  0  0  0  0  0
    0.2741    4.4916   -0.4011 C   0  0  0  0  0  0  0  0  0  0  0  0
    0.2357    5.0160    1.0251 C   0  0  0  0  0  0  0  0  0  0  0  0
   -0.2913    0.5537    1.0570 S   0  0  0  0  0  0  0  0  0  0  0  0
   -1.6548   -0.6711   -0.0355 P   0  0  0  0  0  0  0  0  0  0  0  0
   -1.4285   -0.7924   -1.9773 S   0  0  0  0  0  0  0  0  0  0  0  0
   -1.8509   -2.0502    0.7017 O   0  0  0  0  0  0  0  0  0  0  0  0
   -2.1233   -2.1281    2.1143 C   0  0  0  0  0  0  0  0  0  0  0  0
   -3.0538    0.0253    0.3598 O   0  0  0  0  0  0  0  0  0  0  0  0
   -3.3790    1.3288   -0.1259 C   0  0  0  0  0  0  0  0  0  0  0  0
    2.0520   -3.9865    1.4036 H   0  0  0  0  0  0  0  0  0  0  0  0
    2.8245   -5.3755    0.6302 H   0  0  0  0  0  0  0  0  0  0  0  0
    3.8134   -4.0303    1.2217 H   0  0  0  0  0  0  0  0  0  0  0  0
    1.7733   -3.8408   -1.0560 H   0  0  0  0  0  0  0  0  0  0  0  0
    3.5514   -3.9328   -1.2707 H   0  0  0  0  0  0  0  0  0  0  0  0
    2.9326    0.2568   -0.8275 H   0  0  0  0  0  0  0  0  0  0  0  0
    2.6181    0.1599    0.9038 H   0  0  0  0  0  0  0  0  0  0  0  0
    1.2087    4.7728   -0.8940 H   0  0  0  0  0  0  0  0  0  0  0  0
   -0.5821    4.8381   -0.9796 H   0  0  0  0  0  0  0  0  0  0  0  0
    0.2508    6.1006    1.0076 H   0  0  0  0  0  0  0  0  0  0  0  0
   -0.6666    4.6768    1.5263 H   0  0  0  0  0  0  0  0  0  0  0  0
    1.1012    4.6584    1.5779 H   0  0  0  0  0  0  0  0  0  0  0  0
   -2.1080   -3.1900    2.3460 H   0  0  0  0  0  0  0  0  0  0  0  0
   -3.0999   -1.6968    2.3273 H   0  0  0  0  0  0  0  0  0  0  0  0
   -1.3500   -1.5998    2.6723 H   0  0  0  0  0  0  0  0  0  0  0  0
   -3.3239    1.3462   -1.2157 H   0  0  0  0  0  0  0  0  0  0  0  0
   -2.6886    2.0649    0.2879 H   0  0  0  0  0  0  0  0  0  0  0  0
   -4.3946    1.5223    0.2089 H   0  0  0  0  0  0  0  0  0  0  0  0
  1  2  1  0  0  0  0
  2  3  1  0  0  0  0
  3  4  4  0  0  0  0
  4  5  2  0  0  0  0
  4  6  1  0  0  0  0
  6  7  1  0  0  0  0
  7  8  1  0  0  0  0
  7  9  1  0  0  0  0
  9 10  2  0  0  0  0
  9 11  1  0  0  0  0
 11 12  1  0  0  0  0
 12 13  1  0  0  0  0
  7 14  1  0  0  0  0
 14 15  1  0  0  0  0
 15 16  2  0  0  0  0
 15 17  2  0  0  0  0
 17 18  1  0  0  0  0
 15 19  1  0  0  0  0
 19 20  1  0  0  0  0
  1 21  1  0  0  0  0
  1 22  1  0  0  0  0
  1 23  1  0  0  0  0
  2 24  1  0  0  0  0
  2 25  1  0  0  0  0
  6 26  1  0  0  0  0
  6 27  1  0  0  0  0
 12 28  1  0  0  0  0
 12 29  1  0  0  0  0
 13 30  1  0  0  0  0
 13 31  1  0  0  0  0
 13 32  1  0  0  0  0
 18 33  1  0  0  0  0
 18 34  1  0  0  0  0
 18 35  1  0  0  0  0
 20 36  1  0  0  0  0
 20 37  1  0  0  0  0
 20 38  1  0  0  0  0
M  END
