 xtb: 6.7.1 (edcfbbe)
          04092505203D

 41 40  0     0  0            999 V2000
    4.3946   -1.5835   -0.7830 C   0  0  0  0  0  0  0  0  0  0  0  0
    4.5787   -0.0805   -0.7363 C   0  0  0  0  0  0  0  0  0  0  0  0
    3.5345    0.5825   -0.0021 O   0  0  0  0  0  0  0  0  0  0  0  0
    2.0199    0.6079   -0.4963 P   0  0  0  0  0  0  0  0  0  0  0  0
    1.8097    0.7516   -2.4384 S   0  0  0  0  0  0  0  0  0  0  0  0
    1.4598    1.8546    0.2943 O   0  0  0  0  0  0  0  0  0  0  0  0
    1.9371    2.3192    1.5802 C   0  0  0  0  0  0  0  0  0  0  0  0
    1.7697    1.2822    2.6702 C   0  0  0  0  0  0  0  0  0  0  0  0
    1.1828   -1.1402    0.3839 S   0  0  0  0  0  0  0  0  0  0  0  0
    0.0773   -1.7058   -0.9453 C   0  0  0  0  0  0  0  0  0  0  0  0
   -1.6259   -1.9388   -0.3918 S   0  0  0  0  0  0  0  0  0  0  0  0
   -2.0412    0.0615    0.1977 P   0  0  0  0  0  0  0  0  0  0  0  0
   -1.4204    1.4488   -1.0412 S   0  0  0  0  0  0  0  0  0  0  0  0
   -1.4505    0.2679    1.6473 O   0  0  0  0  0  0  0  0  0  0  0  0
   -1.9638   -0.3426    2.8634 C   0  0  0  0  0  0  0  0  0  0  0  0
   -1.3618   -1.7120    3.1081 C   0  0  0  0  0  0  0  0  0  0  0  0
   -3.6045    0.0451    0.4840 O   0  0  0  0  0  0  0  0  0  0  0  0
   -4.5883    0.2823   -0.5383 C   0  0  0  0  0  0  0  0  0  0  0  0
   -4.6431   -0.8369   -1.5577 C   0  0  0  0  0  0  0  0  0  0  0  0
    4.2487   -1.9816    0.2178 H   0  0  0  0  0  0  0  0  0  0  0  0
    3.5277   -1.8305   -1.3939 H   0  0  0  0  0  0  0  0  0  0  0  0
    5.2757   -2.0351   -1.2273 H   0  0  0  0  0  0  0  0  0  0  0  0
    4.6018    0.3333   -1.7492 H   0  0  0  0  0  0  0  0  0  0  0  0
    5.4864    0.1982   -0.1991 H   0  0  0  0  0  0  0  0  0  0  0  0
    2.9836    2.6106    1.4692 H   0  0  0  0  0  0  0  0  0  0  0  0
    1.3214    3.2014    1.7647 H   0  0  0  0  0  0  0  0  0  0  0  0
    2.4038    0.4199    2.4706 H   0  0  0  0  0  0  0  0  0  0  0  0
    2.0511    1.7196    3.6229 H   0  0  0  0  0  0  0  0  0  0  0  0
    0.7339    0.9560    2.7133 H   0  0  0  0  0  0  0  0  0  0  0  0
    0.4138   -2.6820   -1.2852 H   0  0  0  0  0  0  0  0  0  0  0  0
    0.1135   -0.9719   -1.7559 H   0  0  0  0  0  0  0  0  0  0  0  0
   -1.6720    0.3642    3.6425 H   0  0  0  0  0  0  0  0  0  0  0  0
   -3.0513   -0.3891    2.7975 H   0  0  0  0  0  0  0  0  0  0  0  0
   -0.2782   -1.6682    3.0312 H   0  0  0  0  0  0  0  0  0  0  0  0
   -1.6365   -2.0385    4.1062 H   0  0  0  0  0  0  0  0  0  0  0  0
   -1.7328   -2.4336    2.3854 H   0  0  0  0  0  0  0  0  0  0  0  0
   -5.5228    0.3655    0.0187 H   0  0  0  0  0  0  0  0  0  0  0  0
   -4.3575    1.2355   -1.0239 H   0  0  0  0  0  0  0  0  0  0  0  0
   -4.7360   -1.7987   -1.0598 H   0  0  0  0  0  0  0  0  0  0  0  0
   -5.4967   -0.6832   -2.2101 H   0  0  0  0  0  0  0  0  0  0  0  0
   -3.7366   -0.8385   -2.1606 H   0  0  0  0  0  0  0  0  0  0  0  0
  1  2  1  0  0  0  0
  2  3  1  0  0  0  0
  3  4  2  0  0  0  0
  4  5  2  0  0  0  0
  4  6  2  0  0  0  0
  6  7  1  0  0  0  0
  7  8  1  0  0  0  0
  4  9  1  0  0  0  0
  9 10  1  0  0  0  0
 10 11  1  0  0  0  0
 11 12  1  0  0  0  0
 12 13  2  0  0  0  0
 12 14  2  0  0  0  0
 14 15  1  0  0  0  0
 15 16  1  0  0  0  0
 12 17  2  0  0  0  0
 17 18  1  0  0  0  0
 18 19  1  0  0  0  0
  1 20  1  0  0  0  0
  1 21  1  0  0  0  0
  1 22  1  0  0  0  0
  2 23  1  0  0  0  0
  2 24  1  0  0  0  0
  7 25  1  0  0  0  0
  7 26  1  0  0  0  0
  8 27  1  0  0  0  0
  8 28  1  0  0  0  0
  8 29  1  0  0  0  0
 10 30  1  0  0  0  0
 10 31  1  0  0  0  0
 15 32  1  0  0  0  0
 15 33  1  0  0  0  0
 16 34  1  0  0  0  0
 16 35  1  0  0  0  0
 16 36  1  0  0  0  0
 18 37  1  0  0  0  0
 18 38  1  0  0  0  0
 19 39  1  0  0  0  0
 19 40  1  0  0  0  0
 19 41  1  0  0  0  0
M  END
