 xtb: 6.7.1 (edcfbbe)
          04092514033D

 41 40  0     0  0            999 V2000
    4.5998   -1.9088   -0.7811 C   0  0  0  0  0  0  0  0  0  0  0  0
    4.7495   -0.4289   -0.4910 C   0  0  0  0  0  0  0  0  0  0  0  0
    3.6758    0.0905    0.3133 O   0  0  0  0  0  0  0  0  0  0  0  0
    2.1953    0.3079   -0.2295 P   0  0  0  0  0  0  0  0  0  0  0  0
    2.0664    0.8419   -2.1141 S   0  0  0  0  0  0  0  0  0  0  0  0
    1.6234    1.3350    0.8386 O   0  0  0  0  0  0  0  0  0  0  0  0
    1.6715    2.7604    0.6335 C   0  0  0  0  0  0  0  0  0  0  0  0
    3.0806    3.3098    0.7132 C   0  0  0  0  0  0  0  0  0  0  0  0
    1.1889   -1.4446    0.3658 S   0  0  0  0  0  0  0  0  0  0  0  0
   -0.1117   -1.5275   -0.9301 C   0  0  0  0  0  0  0  0  0  0  0  0
   -1.7272   -1.9934   -0.2721 S   0  0  0  0  0  0  0  0  0  0  0  0
   -2.5018   -0.0899    0.2907 P   0  0  0  0  0  0  0  0  0  0  0  0
   -1.5782    1.4500   -0.5161 S   0  0  0  0  0  0  0  0  0  0  0  0
   -2.5960   -0.0768    1.8727 O   0  0  0  0  0  0  0  0  0  0  0  0
   -1.4382    0.0213    2.7236 C   0  0  0  0  0  0  0  0  0  0  0  0
   -1.1895   -1.2946    3.4350 C   0  0  0  0  0  0  0  0  0  0  0  0
   -4.0577   -0.2054    0.0564 O   0  0  0  0  0  0  0  0  0  0  0  0
   -4.7172    0.2076   -1.1545 C   0  0  0  0  0  0  0  0  0  0  0  0
   -4.4114   -0.7040   -2.3262 C   0  0  0  0  0  0  0  0  0  0  0  0
    4.4773   -2.4684    0.1424 H   0  0  0  0  0  0  0  0  0  0  0  0
    3.7322   -2.0803   -1.4163 H   0  0  0  0  0  0  0  0  0  0  0  0
    5.4880   -2.2588   -1.2987 H   0  0  0  0  0  0  0  0  0  0  0  0
    4.7889    0.1412   -1.4250 H   0  0  0  0  0  0  0  0  0  0  0  0
    5.6417   -0.2280    0.1043 H   0  0  0  0  0  0  0  0  0  0  0  0
    1.2184    2.9825   -0.3389 H   0  0  0  0  0  0  0  0  0  0  0  0
    1.0363    3.1605    1.4252 H   0  0  0  0  0  0  0  0  0  0  0  0
    3.5463    3.0214    1.6519 H   0  0  0  0  0  0  0  0  0  0  0  0
    3.6794    2.9273   -0.1124 H   0  0  0  0  0  0  0  0  0  0  0  0
    3.0421    4.3930    0.6459 H   0  0  0  0  0  0  0  0  0  0  0  0
    0.1611   -2.3066   -1.6365 H   0  0  0  0  0  0  0  0  0  0  0  0
   -0.1773   -0.5525   -1.4200 H   0  0  0  0  0  0  0  0  0  0  0  0
   -0.5681    0.3260    2.1309 H   0  0  0  0  0  0  0  0  0  0  0  0
   -1.6726    0.8154    3.4361 H   0  0  0  0  0  0  0  0  0  0  0  0
   -2.0706   -1.5771    4.0042 H   0  0  0  0  0  0  0  0  0  0  0  0
   -0.9625   -2.0817    2.7197 H   0  0  0  0  0  0  0  0  0  0  0  0
   -0.3467   -1.1774    4.1088 H   0  0  0  0  0  0  0  0  0  0  0  0
   -5.7766    0.1778   -0.8935 H   0  0  0  0  0  0  0  0  0  0  0  0
   -4.4213    1.2372   -1.3790 H   0  0  0  0  0  0  0  0  0  0  0  0
   -5.0114   -0.3977   -3.1778 H   0  0  0  0  0  0  0  0  0  0  0  0
   -3.3584   -0.6310   -2.5944 H   0  0  0  0  0  0  0  0  0  0  0  0
   -4.6414   -1.7362   -2.0760 H   0  0  0  0  0  0  0  0  0  0  0  0
  1  2  1  0  0  0  0
  2  3  1  0  0  0  0
  3  4  2  0  0  0  0
  4  5  2  0  0  0  0
  4  6  2  0  0  0  0
  6  7  1  0  0  0  0
  7  8  1  0  0  0  0
  4  9  1  0  0  0  0
  9 10  1  0  0  0  0
 10 11  1  0  0  0  0
 11 12  1  0  0  0  0
 12 13  2  0  0  0  0
 12 14  2  0  0  0  0
 14 15  1  0  0  0  0
 15 16  1  0  0  0  0
 12 17  2  0  0  0  0
 17 18  1  0  0  0  0
 18 19  1  0  0  0  0
  1 20  1  0  0  0  0
  1 21  1  0  0  0  0
  1 22  1  0  0  0  0
  2 23  1  0  0  0  0
  2 24  1  0  0  0  0
  7 25  1  0  0  0  0
  7 26  1  0  0  0  0
  8 27  1  0  0  0  0
  8 28  1  0  0  0  0
  8 29  1  0  0  0  0
 10 30  1  0  0  0  0
 10 31  1  0  0  0  0
 15 32  1  0  0  0  0
 15 33  1  0  0  0  0
 16 34  1  0  0  0  0
 16 35  1  0  0  0  0
 16 36  1  0  0  0  0
 18 37  1  0  0  0  0
 18 38  1  0  0  0  0
 19 39  1  0  0  0  0
 19 40  1  0  0  0  0
 19 41  1  0  0  0  0
M  END
