 xtb: 6.7.1 (edcfbbe)
          04032519513D

 21 21  0     0  0            999 V2000
    2.7831    0.8008   -0.0015 C   0  0  0  0  0  0  0  0  0  0  0  0
    1.3394    0.3949    0.0007 C   0  0  0  0  0  0  0  0  0  0  0  0
    0.3275    1.3404    0.0035 C   0  0  0  0  0  0  0  0  0  0  0  0
   -1.0114    0.9626    0.0042 C   0  0  0  0  0  0  0  0  0  0  0  0
   -1.3242   -0.3865    0.0016 C   0  0  0  0  0  0  0  0  0  0  0  0
   -0.3276   -1.3572   -0.0014 C   0  0  0  0  0  0  0  0  0  0  0  0
    0.9971   -0.9535   -0.0018 C   0  0  0  0  0  0  0  0  0  0  0  0
   -0.6979   -2.8104    0.0000 C   0  0  0  0  0  0  0  0  0  0  0  0
   -2.0857    2.0089   -0.0032 C   0  0  0  0  0  0  0  0  0  0  0  0
    2.8828    1.8825    0.0312 H   0  0  0  0  0  0  0  0  0  0  0  0
    3.2968    0.3756    0.8592 H   0  0  0  0  0  0  0  0  0  0  0  0
    3.2767    0.4321   -0.8995 H   0  0  0  0  0  0  0  0  0  0  0  0
    0.5782    2.3922    0.0055 H   0  0  0  0  0  0  0  0  0  0  0  0
   -2.3604   -0.6953    0.0024 H   0  0  0  0  0  0  0  0  0  0  0  0
    1.7828   -1.6964   -0.0032 H   0  0  0  0  0  0  0  0  0  0  0  0
   -1.3324   -3.0400   -0.8545 H   0  0  0  0  0  0  0  0  0  0  0  0
    0.1886   -3.4374   -0.0441 H   0  0  0  0  0  0  0  0  0  0  0  0
   -1.2541   -3.0563    0.9035 H   0  0  0  0  0  0  0  0  0  0  0  0
   -3.0654    1.5611    0.1403 H   0  0  0  0  0  0  0  0  0  0  0  0
   -1.9125    2.7380    0.7862 H   0  0  0  0  0  0  0  0  0  0  0  0
   -2.0840    2.5405   -0.9542 H   0  0  0  0  0  0  0  0  0  0  0  0
  1  2  1  0  0  0  0
  2  3  4  0  0  0  0
  3  4  4  0  0  0  0
  4  5  4  0  0  0  0
  5  6  4  0  0  0  0
  2  7  4  0  0  0  0
  6  7  4  0  0  0  0
  6  8  1  0  0  0  0
  4  9  1  0  0  0  0
  1 10  1  0  0  0  0
  1 11  1  0  0  0  0
  1 12  1  0  0  0  0
  3 13  1  0  0  0  0
  5 14  1  0  0  0  0
  7 15  1  0  0  0  0
  8 16  1  0  0  0  0
  8 17  1  0  0  0  0
  8 18  1  0  0  0  0
  9 19  1  0  0  0  0
  9 20  1  0  0  0  0
  9 21  1  0  0  0  0
M  END
