 xtb: 6.7.1 (edcfbbe)
          04092505203D

 41 40  0     0  0            999 V2000
    4.7360   -1.5148    0.1055 C   0  0  0  0  0  0  0  0  0  0  0  0
    4.5052   -0.3137   -0.7912 C   0  0  0  0  0  0  0  0  0  0  0  0
    3.5429    0.5909   -0.2159 O   0  0  0  0  0  0  0  0  0  0  0  0
    2.0136    0.6135   -0.6600 P   0  0  0  0  0  0  0  0  0  0  0  0
    1.7442    0.5909   -2.5993 S   0  0  0  0  0  0  0  0  0  0  0  0
    1.5237    1.9412    0.0285 O   0  0  0  0  0  0  0  0  0  0  0  0
    2.0037    2.4656    1.2907 C   0  0  0  0  0  0  0  0  0  0  0  0
    1.6521    1.5625    2.4531 C   0  0  0  0  0  0  0  0  0  0  0  0
    1.1713   -1.0621    0.3580 S   0  0  0  0  0  0  0  0  0  0  0  0
    0.1018   -1.7600   -0.9373 C   0  0  0  0  0  0  0  0  0  0  0  0
   -1.5899   -2.0448   -0.3685 S   0  0  0  0  0  0  0  0  0  0  0  0
   -2.0615   -0.0522    0.2098 P   0  0  0  0  0  0  0  0  0  0  0  0
   -1.4365    1.3891   -0.9614 S   0  0  0  0  0  0  0  0  0  0  0  0
   -1.5276    0.0990    1.6866 O   0  0  0  0  0  0  0  0  0  0  0  0
   -1.8759   -0.8491    2.7369 C   0  0  0  0  0  0  0  0  0  0  0  0
   -1.5793   -0.1987    4.0715 C   0  0  0  0  0  0  0  0  0  0  0  0
   -3.6342   -0.1115    0.4435 O   0  0  0  0  0  0  0  0  0  0  0  0
   -4.5915    0.1310   -0.6020 C   0  0  0  0  0  0  0  0  0  0  0  0
   -4.5380   -0.9214   -1.6902 C   0  0  0  0  0  0  0  0  0  0  0  0
    5.0479   -1.1866    1.0930 H   0  0  0  0  0  0  0  0  0  0  0  0
    3.8281   -2.1043    0.2021 H   0  0  0  0  0  0  0  0  0  0  0  0
    5.5162   -2.1313   -0.3291 H   0  0  0  0  0  0  0  0  0  0  0  0
    4.1585   -0.6114   -1.7862 H   0  0  0  0  0  0  0  0  0  0  0  0
    5.4147    0.2819   -0.8923 H   0  0  0  0  0  0  0  0  0  0  0  0
    3.0825    2.6130    1.2122 H   0  0  0  0  0  0  0  0  0  0  0  0
    1.4976    3.4298    1.3627 H   0  0  0  0  0  0  0  0  0  0  0  0
    2.1890    0.6181    2.3744 H   0  0  0  0  0  0  0  0  0  0  0  0
    1.9259    2.0537    3.3816 H   0  0  0  0  0  0  0  0  0  0  0  0
    0.5829    1.3618    2.4506 H   0  0  0  0  0  0  0  0  0  0  0  0
    0.4880   -2.7351   -1.2232 H   0  0  0  0  0  0  0  0  0  0  0  0
    0.1052   -1.0721   -1.7878 H   0  0  0  0  0  0  0  0  0  0  0  0
   -2.9340   -1.0970    2.6391 H   0  0  0  0  0  0  0  0  0  0  0  0
   -1.2713   -1.7468    2.5854 H   0  0  0  0  0  0  0  0  0  0  0  0
   -2.1282    0.7344    4.1637 H   0  0  0  0  0  0  0  0  0  0  0  0
   -1.8852   -0.8735    4.8646 H   0  0  0  0  0  0  0  0  0  0  0  0
   -0.5169    0.0047    4.1663 H   0  0  0  0  0  0  0  0  0  0  0  0
   -5.5497    0.1235   -0.0803 H   0  0  0  0  0  0  0  0  0  0  0  0
   -4.4014    1.1249   -1.0186 H   0  0  0  0  0  0  0  0  0  0  0  0
   -4.6038   -1.9174   -1.2593 H   0  0  0  0  0  0  0  0  0  0  0  0
   -5.3648   -0.7683   -2.3764 H   0  0  0  0  0  0  0  0  0  0  0  0
   -3.6036   -0.8376   -2.2435 H   0  0  0  0  0  0  0  0  0  0  0  0
  1  2  1  0  0  0  0
  2  3  1  0  0  0  0
  3  4  2  0  0  0  0
  4  5  2  0  0  0  0
  4  6  2  0  0  0  0
  6  7  1  0  0  0  0
  7  8  1  0  0  0  0
  4  9  1  0  0  0  0
  9 10  1  0  0  0  0
 10 11  1  0  0  0  0
 11 12  1  0  0  0  0
 12 13  2  0  0  0  0
 12 14  2  0  0  0  0
 14 15  1  0  0  0  0
 15 16  1  0  0  0  0
 12 17  2  0  0  0  0
 17 18  1  0  0  0  0
 18 19  1  0  0  0  0
  1 20  1  0  0  0  0
  1 21  1  0  0  0  0
  1 22  1  0  0  0  0
  2 23  1  0  0  0  0
  2 24  1  0  0  0  0
  7 25  1  0  0  0  0
  7 26  1  0  0  0  0
  8 27  1  0  0  0  0
  8 28  1  0  0  0  0
  8 29  1  0  0  0  0
 10 30  1  0  0  0  0
 10 31  1  0  0  0  0
 15 32  1  0  0  0  0
 15 33  1  0  0  0  0
 16 34  1  0  0  0  0
 16 35  1  0  0  0  0
 16 36  1  0  0  0  0
 18 37  1  0  0  0  0
 18 38  1  0  0  0  0
 19 39  1  0  0  0  0
 19 40  1  0  0  0  0
 19 41  1  0  0  0  0
M  END
