 xtb: 6.7.1 (edcfbbe)
          04092507313D

 38 37  0     0  0            999 V2000
    2.0813   -3.3099    0.7274 C   0  0  0  0  0  0  0  0  0  0  0  0
    3.1820   -2.4049    0.1988 C   0  0  0  0  0  0  0  0  0  0  0  0
    2.7236   -1.6586   -0.9456 O   0  0  0  0  0  0  0  0  0  0  0  0
    2.1470   -0.4948   -0.7585 C   0  0  0  0  0  0  0  0  0  0  0  0
    1.9765    0.0400    0.3188 O   0  0  0  0  0  0  0  0  0  0  0  0
    1.7213    0.1558   -2.0586 C   0  0  0  0  0  0  0  0  0  0  0  0
    0.4051    0.8979   -1.8396 C   0  0  0  0  0  0  0  0  0  0  0  0
    0.1901    1.5447   -2.6937 H   0  0  0  0  0  0  0  0  0  0  0  0
    0.4353    1.7549   -0.5876 C   0  0  0  0  0  0  0  0  0  0  0  0
   -0.4077    1.6548    0.2897 O   0  0  0  0  0  0  0  0  0  0  0  0
    1.3620    2.6664   -0.6391 O   0  0  0  0  0  0  0  0  0  0  0  0
    1.5076    3.5787    0.4735 C   0  0  0  0  0  0  0  0  0  0  0  0
    2.5028    3.0373    1.4850 C   0  0  0  0  0  0  0  0  0  0  0  0
   -1.0069   -0.2550   -1.7202 S   0  0  0  0  0  0  0  0  0  0  0  0
   -1.6869   -0.3004    0.2789 P   0  0  0  0  0  0  0  0  0  0  0  0
   -0.6567   -0.7614    1.8967 S   0  0  0  0  0  0  0  0  0  0  0  0
   -2.7892    0.8521    0.3697 O   0  0  0  0  0  0  0  0  0  0  0  0
   -3.8121    0.7897    1.3734 C   0  0  0  0  0  0  0  0  0  0  0  0
   -2.7226   -1.5271    0.0122 O   0  0  0  0  0  0  0  0  0  0  0  0
   -2.3243   -2.8955    0.0327 C   0  0  0  0  0  0  0  0  0  0  0  0
    1.7071   -3.9498   -0.0669 H   0  0  0  0  0  0  0  0  0  0  0  0
    2.4750   -3.9245    1.5299 H   0  0  0  0  0  0  0  0  0  0  0  0
    1.2604   -2.7122    1.1211 H   0  0  0  0  0  0  0  0  0  0  0  0
    4.0276   -2.9824   -0.1752 H   0  0  0  0  0  0  0  0  0  0  0  0
    3.5057   -1.7015    0.9710 H   0  0  0  0  0  0  0  0  0  0  0  0
    1.6164   -0.5960   -2.8386 H   0  0  0  0  0  0  0  0  0  0  0  0
    2.4945    0.8733   -2.3424 H   0  0  0  0  0  0  0  0  0  0  0  0
    1.8621    4.5027    0.0158 H   0  0  0  0  0  0  0  0  0  0  0  0
    0.5268    3.7265    0.9329 H   0  0  0  0  0  0  0  0  0  0  0  0
    2.1677    2.0693    1.8527 H   0  0  0  0  0  0  0  0  0  0  0  0
    3.4792    2.9140    1.0256 H   0  0  0  0  0  0  0  0  0  0  0  0
    2.5796    3.7271    2.3187 H   0  0  0  0  0  0  0  0  0  0  0  0
   -3.3739    0.5593    2.3464 H   0  0  0  0  0  0  0  0  0  0  0  0
   -4.5444    0.0283    1.1074 H   0  0  0  0  0  0  0  0  0  0  0  0
   -4.2648    1.7782    1.3842 H   0  0  0  0  0  0  0  0  0  0  0  0
   -3.2387   -3.4703    0.1578 H   0  0  0  0  0  0  0  0  0  0  0  0
   -1.6465   -3.0735    0.8709 H   0  0  0  0  0  0  0  0  0  0  0  0
   -1.8343   -3.1544   -0.9059 H   0  0  0  0  0  0  0  0  0  0  0  0
  1  2  1  0  0  0  0
  2  3  1  0  0  0  0
  3  4  4  0  0  0  0
  4  5  2  0  0  0  0
  4  6  1  0  0  0  0
  6  7  1  0  0  0  0
  7  8  1  0  0  0  0
  7  9  1  0  0  0  0
  9 10  2  0  0  0  0
  9 11  4  0  0  0  0
 11 12  1  0  0  0  0
 12 13  1  0  0  0  0
  7 14  1  0  0  0  0
 14 15  1  0  0  0  0
 15 16  2  0  0  0  0
 15 17  1  0  0  0  0
 17 18  1  0  0  0  0
 15 19  1  0  0  0  0
 19 20  1  0  0  0  0
  1 21  1  0  0  0  0
  1 22  1  0  0  0  0
  1 23  1  0  0  0  0
  2 24  1  0  0  0  0
  2 25  1  0  0  0  0
  6 26  1  0  0  0  0
  6 27  1  0  0  0  0
 12 28  1  0  0  0  0
 12 29  1  0  0  0  0
 13 30  1  0  0  0  0
 13 31  1  0  0  0  0
 13 32  1  0  0  0  0
 18 33  1  0  0  0  0
 18 34  1  0  0  0  0
 18 35  1  0  0  0  0
 20 36  1  0  0  0  0
 20 37  1  0  0  0  0
 20 38  1  0  0  0  0
M  END
