 xtb: 6.7.1 (edcfbbe)
          04092505203D

 41 40  0     0  0            999 V2000
    3.9262   -1.4474   -2.5686 C   0  0  0  0  0  0  0  0  0  0  0  0
    4.5169   -1.3700   -1.1760 C   0  0  0  0  0  0  0  0  0  0  0  0
    3.5055   -1.3014   -0.1532 O   0  0  0  0  0  0  0  0  0  0  0  0
    2.5149   -0.0663   -0.0023 P   0  0  0  0  0  0  0  0  0  0  0  0
    3.2850    1.7049   -0.2977 S   0  0  0  0  0  0  0  0  0  0  0  0
    1.9981   -0.2464    1.4756 O   0  0  0  0  0  0  0  0  0  0  0  0
    1.5007   -1.5098    1.9863 C   0  0  0  0  0  0  0  0  0  0  0  0
    0.5305   -1.2104    3.1099 C   0  0  0  0  0  0  0  0  0  0  0  0
    0.8634   -0.5844   -1.2542 S   0  0  0  0  0  0  0  0  0  0  0  0
    0.1221    1.0624   -1.2604 C   0  0  0  0  0  0  0  0  0  0  0  0
   -0.6167    1.5130    0.3339 S   0  0  0  0  0  0  0  0  0  0  0  0
   -2.3583    0.3487    0.0954 P   0  0  0  0  0  0  0  0  0  0  0  0
   -3.2118    0.3669   -1.6745 S   0  0  0  0  0  0  0  0  0  0  0  0
   -3.3115    0.7696    1.2973 O   0  0  0  0  0  0  0  0  0  0  0  0
   -4.2797    1.8265    1.1796 C   0  0  0  0  0  0  0  0  0  0  0  0
   -3.6241    3.1842    1.0310 C   0  0  0  0  0  0  0  0  0  0  0  0
   -1.8313   -1.0587    0.5900 O   0  0  0  0  0  0  0  0  0  0  0  0
   -2.5421   -2.2886    0.3099 C   0  0  0  0  0  0  0  0  0  0  0  0
   -1.5296   -3.3997    0.1230 C   0  0  0  0  0  0  0  0  0  0  0  0
    4.7219   -1.6263   -3.2845 H   0  0  0  0  0  0  0  0  0  0  0  0
    3.1980   -2.2523   -2.6285 H   0  0  0  0  0  0  0  0  0  0  0  0
    3.4343   -0.5085   -2.8177 H   0  0  0  0  0  0  0  0  0  0  0  0
    5.1619   -0.4914   -1.0804 H   0  0  0  0  0  0  0  0  0  0  0  0
    5.0765   -2.2720   -0.9242 H   0  0  0  0  0  0  0  0  0  0  0  0
    1.0153   -2.0503    1.1686 H   0  0  0  0  0  0  0  0  0  0  0  0
    2.3622   -2.0810    2.3371 H   0  0  0  0  0  0  0  0  0  0  0  0
   -0.3393   -0.6818    2.7270 H   0  0  0  0  0  0  0  0  0  0  0  0
    0.2111   -2.1427    3.5648 H   0  0  0  0  0  0  0  0  0  0  0  0
    1.0128   -0.5897    3.8597 H   0  0  0  0  0  0  0  0  0  0  0  0
   -0.6497    1.0662   -2.0308 H   0  0  0  0  0  0  0  0  0  0  0  0
    0.8962    1.8023   -1.4664 H   0  0  0  0  0  0  0  0  0  0  0  0
   -4.9202    1.6127    0.3180 H   0  0  0  0  0  0  0  0  0  0  0  0
   -4.8587    1.7558    2.1012 H   0  0  0  0  0  0  0  0  0  0  0  0
   -3.1018    3.2435    0.0766 H   0  0  0  0  0  0  0  0  0  0  0  0
   -4.3846    3.9576    1.0640 H   0  0  0  0  0  0  0  0  0  0  0  0
   -2.9066    3.3478    1.8314 H   0  0  0  0  0  0  0  0  0  0  0  0
   -3.2040   -2.4843    1.1561 H   0  0  0  0  0  0  0  0  0  0  0  0
   -3.1433   -2.1457   -0.5945 H   0  0  0  0  0  0  0  0  0  0  0  0
   -0.8524   -3.1526   -0.6912 H   0  0  0  0  0  0  0  0  0  0  0  0
   -0.9566   -3.5428    1.0344 H   0  0  0  0  0  0  0  0  0  0  0  0
   -2.0552   -4.3183   -0.1171 H   0  0  0  0  0  0  0  0  0  0  0  0
  1  2  1  0  0  0  0
  2  3  1  0  0  0  0
  3  4  2  0  0  0  0
  4  5  2  0  0  0  0
  4  6  2  0  0  0  0
  6  7  1  0  0  0  0
  7  8  1  0  0  0  0
  4  9  1  0  0  0  0
  9 10  1  0  0  0  0
 10 11  1  0  0  0  0
 11 12  1  0  0  0  0
 12 13  2  0  0  0  0
 12 14  2  0  0  0  0
 14 15  1  0  0  0  0
 15 16  1  0  0  0  0
 12 17  2  0  0  0  0
 17 18  1  0  0  0  0
 18 19  1  0  0  0  0
  1 20  1  0  0  0  0
  1 21  1  0  0  0  0
  1 22  1  0  0  0  0
  2 23  1  0  0  0  0
  2 24  1  0  0  0  0
  7 25  1  0  0  0  0
  7 26  1  0  0  0  0
  8 27  1  0  0  0  0
  8 28  1  0  0  0  0
  8 29  1  0  0  0  0
 10 30  1  0  0  0  0
 10 31  1  0  0  0  0
 15 32  1  0  0  0  0
 15 33  1  0  0  0  0
 16 34  1  0  0  0  0
 16 35  1  0  0  0  0
 16 36  1  0  0  0  0
 18 37  1  0  0  0  0
 18 38  1  0  0  0  0
 19 39  1  0  0  0  0
 19 40  1  0  0  0  0
 19 41  1  0  0  0  0
M  END
