20
 xtb: 6.7.1 (edcfbbe)
C           -2.74435179990649       -0.25714537454721       -0.00794537757075
C           -2.35682975181842        1.09775054204944        0.01701219778079
C           -1.02316315794283        1.43888174451744        0.02554797699432
C           -0.01369240980467        0.44588988554162        0.00621489243451
C           -0.40730906069519       -0.93256734716295       -0.00421242070438
C           -1.78957759077070       -1.24563724013193       -0.01570260629008
C            0.57569920680115       -1.95161722509390        0.00079288483948
C            1.90846119286338       -1.61116084775645        0.01291006545116
C            2.31332300587211       -0.26631494958230        0.01066801559799
C            1.38473898861536        0.76509570031571        0.00528388406855
N            1.80547014747022        2.08576268935841        0.06407697110358
H           -3.79828338156907       -0.51655377580117       -0.01640309532857
H           -3.11339127950632        1.87555018958043        0.03326784809935
H           -0.75679157501514        2.48983408304821        0.05650060569901
H           -2.08118293345062       -2.29218203142418       -0.02812758673748
H            0.26076695397618       -2.99043059607872       -0.00550887715390
H            2.66830103001744       -2.38688234266159        0.01503608055693
H            3.37190630208942       -0.02183994667485        0.00885838537998
H            2.77206087886663        2.21692612528273       -0.19865657565385
H            1.20334707685363        2.76110014903636       -0.38284928252204
