 xtb: 6.7.1 (edcfbbe)
          04092505213D

 41 40  0     0  0            999 V2000
    4.5948   -2.2445    0.0291 C   0  0  0  0  0  0  0  0  0  0  0  0
    4.8372   -0.7493   -0.0011 C   0  0  0  0  0  0  0  0  0  0  0  0
    3.6929   -0.0084    0.4592 O   0  0  0  0  0  0  0  0  0  0  0  0
    2.3285    0.0507   -0.3564 P   0  0  0  0  0  0  0  0  0  0  0  0
    2.5558    0.1849   -2.3032 S   0  0  0  0  0  0  0  0  0  0  0  0
    1.6080    1.2707    0.3594 O   0  0  0  0  0  0  0  0  0  0  0  0
    1.8050    2.6367   -0.0694 C   0  0  0  0  0  0  0  0  0  0  0  0
    0.6125    3.4553    0.3810 C   0  0  0  0  0  0  0  0  0  0  0  0
    1.1730   -1.5336    0.4005 S   0  0  0  0  0  0  0  0  0  0  0  0
   -0.0856   -1.5379   -0.9145 C   0  0  0  0  0  0  0  0  0  0  0  0
   -0.8763    0.0725   -1.1748 S   0  0  0  0  0  0  0  0  0  0  0  0
   -2.3507   -0.0421    0.3640 P   0  0  0  0  0  0  0  0  0  0  0  0
   -3.3919    1.6012    0.5711 S   0  0  0  0  0  0  0  0  0  0  0  0
   -1.5815   -0.6046    1.6305 O   0  0  0  0  0  0  0  0  0  0  0  0
   -0.8749    0.2580    2.5425 C   0  0  0  0  0  0  0  0  0  0  0  0
   -1.7596    0.6272    3.7163 C   0  0  0  0  0  0  0  0  0  0  0  0
   -3.1577   -1.3733    0.0632 O   0  0  0  0  0  0  0  0  0  0  0  0
   -4.3689   -1.3564   -0.7126 C   0  0  0  0  0  0  0  0  0  0  0  0
   -4.1009   -1.0945   -2.1816 C   0  0  0  0  0  0  0  0  0  0  0  0
    3.8370   -2.5125   -0.7059 H   0  0  0  0  0  0  0  0  0  0  0  0
    5.5173   -2.7630   -0.2116 H   0  0  0  0  0  0  0  0  0  0  0  0
    4.2524   -2.5524    1.0139 H   0  0  0  0  0  0  0  0  0  0  0  0
    5.0761   -0.4182   -1.0167 H   0  0  0  0  0  0  0  0  0  0  0  0
    5.6329   -0.4542    0.6842 H   0  0  0  0  0  0  0  0  0  0  0  0
    2.7315    3.0000    0.3811 H   0  0  0  0  0  0  0  0  0  0  0  0
    1.9052    2.6473   -1.1601 H   0  0  0  0  0  0  0  0  0  0  0  0
   -0.3050    3.0607   -0.0516 H   0  0  0  0  0  0  0  0  0  0  0  0
    0.5291    3.4365    1.4642 H   0  0  0  0  0  0  0  0  0  0  0  0
    0.7417    4.4810    0.0513 H   0  0  0  0  0  0  0  0  0  0  0  0
   -0.8319   -2.2745   -0.6254 H   0  0  0  0  0  0  0  0  0  0  0  0
    0.3885   -1.7935   -1.8606 H   0  0  0  0  0  0  0  0  0  0  0  0
   -0.0080   -0.3248    2.8620 H   0  0  0  0  0  0  0  0  0  0  0  0
   -0.5329    1.1518    2.0124 H   0  0  0  0  0  0  0  0  0  0  0  0
   -1.1863    1.2131    4.4275 H   0  0  0  0  0  0  0  0  0  0  0  0
   -2.6099    1.2137    3.3747 H   0  0  0  0  0  0  0  0  0  0  0  0
   -2.1254   -0.2732    4.2013 H   0  0  0  0  0  0  0  0  0  0  0  0
   -4.7988   -2.3459   -0.5507 H   0  0  0  0  0  0  0  0  0  0  0  0
   -5.0347   -0.5903   -0.3027 H   0  0  0  0  0  0  0  0  0  0  0  0
   -3.3921   -1.8177   -2.5769 H   0  0  0  0  0  0  0  0  0  0  0  0
   -5.0323   -1.1675   -2.7339 H   0  0  0  0  0  0  0  0  0  0  0  0
   -3.6914   -0.0931   -2.3123 H   0  0  0  0  0  0  0  0  0  0  0  0
  1  2  1  0  0  0  0
  2  3  1  0  0  0  0
  3  4  2  0  0  0  0
  4  5  2  0  0  0  0
  4  6  2  0  0  0  0
  6  7  1  0  0  0  0
  7  8  1  0  0  0  0
  4  9  1  0  0  0  0
  9 10  1  0  0  0  0
 10 11  1  0  0  0  0
 11 12  1  0  0  0  0
 12 13  2  0  0  0  0
 12 14  2  0  0  0  0
 14 15  1  0  0  0  0
 15 16  1  0  0  0  0
 12 17  2  0  0  0  0
 17 18  1  0  0  0  0
 18 19  1  0  0  0  0
  1 20  1  0  0  0  0
  1 21  1  0  0  0  0
  1 22  1  0  0  0  0
  2 23  1  0  0  0  0
  2 24  1  0  0  0  0
  7 25  1  0  0  0  0
  7 26  1  0  0  0  0
  8 27  1  0  0  0  0
  8 28  1  0  0  0  0
  8 29  1  0  0  0  0
 10 30  1  0  0  0  0
 10 31  1  0  0  0  0
 15 32  1  0  0  0  0
 15 33  1  0  0  0  0
 16 34  1  0  0  0  0
 16 35  1  0  0  0  0
 16 36  1  0  0  0  0
 18 37  1  0  0  0  0
 18 38  1  0  0  0  0
 19 39  1  0  0  0  0
 19 40  1  0  0  0  0
 19 41  1  0  0  0  0
M  END
