 xtb: 6.7.1 (edcfbbe)
          04092507313D

 38 37  0     0  0            999 V2000
    3.8639   -3.7674    0.4343 C   0  0  0  0  0  0  0  0  0  0  0  0
    2.8573   -2.6872    0.7764 C   0  0  0  0  0  0  0  0  0  0  0  0
    2.8949   -1.6976   -0.2742 O   0  0  0  0  0  0  0  0  0  0  0  0
    1.8927   -0.8726   -0.3982 C   0  0  0  0  0  0  0  0  0  0  0  0
    0.9236   -0.8723    0.3506 O   0  0  0  0  0  0  0  0  0  0  0  0
    2.0340    0.0768   -1.5558 C   0  0  0  0  0  0  0  0  0  0  0  0
    0.8494    1.0268   -1.6023 C   0  0  0  0  0  0  0  0  0  0  0  0
    0.8872    1.6614   -2.4908 H   0  0  0  0  0  0  0  0  0  0  0  0
    0.7520    1.9166   -0.3735 C   0  0  0  0  0  0  0  0  0  0  0  0
    1.5643    1.9014    0.5250 O   0  0  0  0  0  0  0  0  0  0  0  0
   -0.2965    2.7048   -0.4392 O   0  0  0  0  0  0  0  0  0  0  0  0
   -0.5221    3.6479    0.6255 C   0  0  0  0  0  0  0  0  0  0  0  0
    0.1905    4.9595    0.3382 C   0  0  0  0  0  0  0  0  0  0  0  0
   -0.7474    0.1400   -1.8346 S   0  0  0  0  0  0  0  0  0  0  0  0
   -1.4116   -0.5707    0.0447 P   0  0  0  0  0  0  0  0  0  0  0  0
   -1.4233   -2.4681    0.5749 S   0  0  0  0  0  0  0  0  0  0  0  0
   -1.1863    0.4814    1.2378 O   0  0  0  0  0  0  0  0  0  0  0  0
   -0.4686    0.2102    2.4393 C   0  0  0  0  0  0  0  0  0  0  0  0
   -2.9052   -0.1313   -0.3868 O   0  0  0  0  0  0  0  0  0  0  0  0
   -4.0596   -0.5015    0.3672 C   0  0  0  0  0  0  0  0  0  0  0  0
    3.8696   -4.5111    1.2239 H   0  0  0  0  0  0  0  0  0  0  0  0
    3.5962   -4.2455   -0.5032 H   0  0  0  0  0  0  0  0  0  0  0  0
    4.8548   -3.3340    0.3397 H   0  0  0  0  0  0  0  0  0  0  0  0
    3.1055   -2.1871    1.7171 H   0  0  0  0  0  0  0  0  0  0  0  0
    1.8386   -3.0819    0.8493 H   0  0  0  0  0  0  0  0  0  0  0  0
    2.0944   -0.4988   -2.4803 H   0  0  0  0  0  0  0  0  0  0  0  0
    2.9653    0.6326   -1.4295 H   0  0  0  0  0  0  0  0  0  0  0  0
   -1.6046    3.7755    0.6497 H   0  0  0  0  0  0  0  0  0  0  0  0
   -0.1725    3.2084    1.5635 H   0  0  0  0  0  0  0  0  0  0  0  0
   -0.1231    5.3506   -0.6256 H   0  0  0  0  0  0  0  0  0  0  0  0
   -0.0571    5.6765    1.1139 H   0  0  0  0  0  0  0  0  0  0  0  0
    1.2672    4.8070    0.3282 H   0  0  0  0  0  0  0  0  0  0  0  0
   -1.0183    0.7042    3.2380 H   0  0  0  0  0  0  0  0  0  0  0  0
    0.5416    0.6117    2.3565 H   0  0  0  0  0  0  0  0  0  0  0  0
   -0.4226   -0.8659    2.6145 H   0  0  0  0  0  0  0  0  0  0  0  0
   -4.1474    0.1319    1.2497 H   0  0  0  0  0  0  0  0  0  0  0  0
   -3.9912   -1.5493    0.6698 H   0  0  0  0  0  0  0  0  0  0  0  0
   -4.9071   -0.3536   -0.2975 H   0  0  0  0  0  0  0  0  0  0  0  0
  1  2  1  0  0  0  0
  2  3  1  0  0  0  0
  3  4  4  0  0  0  0
  4  5  2  0  0  0  0
  4  6  1  0  0  0  0
  6  7  1  0  0  0  0
  7  8  1  0  0  0  0
  7  9  1  0  0  0  0
  9 10  2  0  0  0  0
  9 11  4  0  0  0  0
 11 12  1  0  0  0  0
 12 13  1  0  0  0  0
  7 14  1  0  0  0  0
 14 15  1  0  0  0  0
 15 16  2  0  0  0  0
 15 17  1  0  0  0  0
 17 18  1  0  0  0  0
 15 19  1  0  0  0  0
 19 20  1  0  0  0  0
  1 21  1  0  0  0  0
  1 22  1  0  0  0  0
  1 23  1  0  0  0  0
  2 24  1  0  0  0  0
  2 25  1  0  0  0  0
  6 26  1  0  0  0  0
  6 27  1  0  0  0  0
 12 28  1  0  0  0  0
 12 29  1  0  0  0  0
 13 30  1  0  0  0  0
 13 31  1  0  0  0  0
 13 32  1  0  0  0  0
 18 33  1  0  0  0  0
 18 34  1  0  0  0  0
 18 35  1  0  0  0  0
 20 36  1  0  0  0  0
 20 37  1  0  0  0  0
 20 38  1  0  0  0  0
M  END
