 xtb: 6.7.1 (edcfbbe)
          04092507313D

 38 37  0     0  0            999 V2000
    4.2019   -3.7300   -1.1625 C   0  0  0  0  0  0  0  0  0  0  0  0
    3.1050   -3.0046   -1.9256 C   0  0  0  0  0  0  0  0  0  0  0  0
    2.8341   -1.7160   -1.3412 O   0  0  0  0  0  0  0  0  0  0  0  0
    1.9871   -1.6474   -0.3360 C   0  0  0  0  0  0  0  0  0  0  0  0
    1.4038   -2.5932    0.1450 O   0  0  0  0  0  0  0  0  0  0  0  0
    1.7855   -0.2120    0.1156 C   0  0  0  0  0  0  0  0  0  0  0  0
    0.9025    0.5058   -0.9114 C   0  0  0  0  0  0  0  0  0  0  0  0
    1.4483    0.6327   -1.8494 H   0  0  0  0  0  0  0  0  0  0  0  0
    0.4469    1.8567   -0.3912 C   0  0  0  0  0  0  0  0  0  0  0  0
   -0.7284    2.1306   -0.2417 O   0  0  0  0  0  0  0  0  0  0  0  0
    1.4475    2.6464   -0.1348 O   0  0  0  0  0  0  0  0  0  0  0  0
    1.1747    3.9286    0.4764 C   0  0  0  0  0  0  0  0  0  0  0  0
    1.1189    3.7895    1.9886 C   0  0  0  0  0  0  0  0  0  0  0  0
   -0.5878   -0.4544   -1.3549 S   0  0  0  0  0  0  0  0  0  0  0  0
   -1.8498   -0.0891    0.3152 P   0  0  0  0  0  0  0  0  0  0  0  0
   -1.1515    0.3674    2.0988 S   0  0  0  0  0  0  0  0  0  0  0  0
   -3.1215    0.6994   -0.2061 O   0  0  0  0  0  0  0  0  0  0  0  0
   -3.4960    2.0229    0.1829 C   0  0  0  0  0  0  0  0  0  0  0  0
   -2.6023   -1.5061    0.3392 O   0  0  0  0  0  0  0  0  0  0  0  0
   -1.9530   -2.6704    0.8551 C   0  0  0  0  0  0  0  0  0  0  0  0
    5.0987   -3.1180   -1.1230 H   0  0  0  0  0  0  0  0  0  0  0  0
    3.8729   -3.9440   -0.1481 H   0  0  0  0  0  0  0  0  0  0  0  0
    4.4284   -4.6655   -1.6631 H   0  0  0  0  0  0  0  0  0  0  0  0
    2.1801   -3.5881   -1.9252 H   0  0  0  0  0  0  0  0  0  0  0  0
    3.4122   -2.7796   -2.9468 H   0  0  0  0  0  0  0  0  0  0  0  0
    2.7455    0.2999    0.1720 H   0  0  0  0  0  0  0  0  0  0  0  0
    1.3039   -0.2209    1.0953 H   0  0  0  0  0  0  0  0  0  0  0  0
    2.0056    4.5594    0.1617 H   0  0  0  0  0  0  0  0  0  0  0  0
    0.2294    4.3105    0.0835 H   0  0  0  0  0  0  0  0  0  0  0  0
    2.0655    3.4174    2.3691 H   0  0  0  0  0  0  0  0  0  0  0  0
    0.9105    4.7576    2.4313 H   0  0  0  0  0  0  0  0  0  0  0  0
    0.3321    3.0937    2.2762 H   0  0  0  0  0  0  0  0  0  0  0  0
   -4.5811    2.0169    0.2586 H   0  0  0  0  0  0  0  0  0  0  0  0
   -3.1618    2.7270   -0.5766 H   0  0  0  0  0  0  0  0  0  0  0  0
   -3.0479    2.2787    1.1444 H   0  0  0  0  0  0  0  0  0  0  0  0
   -2.6422   -3.4918    0.6799 H   0  0  0  0  0  0  0  0  0  0  0  0
   -1.7664   -2.5473    1.9233 H   0  0  0  0  0  0  0  0  0  0  0  0
   -1.0041   -2.8525    0.3465 H   0  0  0  0  0  0  0  0  0  0  0  0
  1  2  1  0  0  0  0
  2  3  1  0  0  0  0
  3  4  1  0  0  0  0
  4  5  2  0  0  0  0
  4  6  1  0  0  0  0
  6  7  1  0  0  0  0
  7  8  1  0  0  0  0
  7  9  1  0  0  0  0
  9 10  2  0  0  0  0
  9 11  4  0  0  0  0
 11 12  1  0  0  0  0
 12 13  1  0  0  0  0
  7 14  1  0  0  0  0
 14 15  1  0  0  0  0
 15 16  2  0  0  0  0
 15 17  2  0  0  0  0
 17 18  1  0  0  0  0
 15 19  1  0  0  0  0
 19 20  1  0  0  0  0
  1 21  1  0  0  0  0
  1 22  1  0  0  0  0
  1 23  1  0  0  0  0
  2 24  1  0  0  0  0
  2 25  1  0  0  0  0
  6 26  1  0  0  0  0
  6 27  1  0  0  0  0
 12 28  1  0  0  0  0
 12 29  1  0  0  0  0
 13 30  1  0  0  0  0
 13 31  1  0  0  0  0
 13 32  1  0  0  0  0
 18 33  1  0  0  0  0
 18 34  1  0  0  0  0
 18 35  1  0  0  0  0
 20 36  1  0  0  0  0
 20 37  1  0  0  0  0
 20 38  1  0  0  0  0
M  END
