 xtb: 6.7.1 (edcfbbe)
          04092505213D

 41 40  0     0  0            999 V2000
    2.7398   -0.5574   -2.8891 C   0  0  0  0  0  0  0  0  0  0  0  0
    3.3754    0.2386   -1.7663 C   0  0  0  0  0  0  0  0  0  0  0  0
    2.3702    0.6939   -0.8230 O   0  0  0  0  0  0  0  0  0  0  0  0
    2.0384    0.0078    0.5492 P   0  0  0  0  0  0  0  0  0  0  0  0
    0.8092    1.0832    1.6252 S   0  0  0  0  0  0  0  0  0  0  0  0
    3.4767   -0.1887    1.1944 O   0  0  0  0  0  0  0  0  0  0  0  0
    3.6371   -0.6997    2.5344 C   0  0  0  0  0  0  0  0  0  0  0  0
    5.0288   -0.3338    3.0084 C   0  0  0  0  0  0  0  0  0  0  0  0
    1.4879   -2.0170    0.1818 S   0  0  0  0  0  0  0  0  0  0  0  0
   -0.0899   -1.7875   -0.6767 C   0  0  0  0  0  0  0  0  0  0  0  0
   -1.4488   -1.2646    0.4186 S   0  0  0  0  0  0  0  0  0  0  0  0
   -2.0878    0.4283   -0.7073 P   0  0  0  0  0  0  0  0  0  0  0  0
   -0.7359    1.3420   -1.7836 S   0  0  0  0  0  0  0  0  0  0  0  0
   -2.9177    1.2943    0.3314 O   0  0  0  0  0  0  0  0  0  0  0  0
   -2.3581    2.2195    1.2803 C   0  0  0  0  0  0  0  0  0  0  0  0
   -3.4621    3.1691    1.6974 C   0  0  0  0  0  0  0  0  0  0  0  0
   -3.2340   -0.1077   -1.6460 O   0  0  0  0  0  0  0  0  0  0  0  0
   -4.3865   -0.8489   -1.1642 C   0  0  0  0  0  0  0  0  0  0  0  0
   -4.3051   -2.2889   -1.6292 C   0  0  0  0  0  0  0  0  0  0  0  0
    3.4717   -0.7021   -3.6773 H   0  0  0  0  0  0  0  0  0  0  0  0
    2.4052   -1.5297   -2.5359 H   0  0  0  0  0  0  0  0  0  0  0  0
    1.8892   -0.0094   -3.2894 H   0  0  0  0  0  0  0  0  0  0  0  0
    3.8163    1.1635   -2.1411 H   0  0  0  0  0  0  0  0  0  0  0  0
    4.1282   -0.3430   -1.2320 H   0  0  0  0  0  0  0  0  0  0  0  0
    2.8654   -0.2544    3.1711 H   0  0  0  0  0  0  0  0  0  0  0  0
    3.4955   -1.7830    2.5021 H   0  0  0  0  0  0  0  0  0  0  0  0
    5.1486    0.7460    3.0146 H   0  0  0  0  0  0  0  0  0  0  0  0
    5.1731   -0.7162    4.0134 H   0  0  0  0  0  0  0  0  0  0  0  0
    5.7733   -0.7674    2.3474 H   0  0  0  0  0  0  0  0  0  0  0  0
   -0.3353   -2.7610   -1.0925 H   0  0  0  0  0  0  0  0  0  0  0  0
    0.0251   -1.0318   -1.4582 H   0  0  0  0  0  0  0  0  0  0  0  0
   -1.9681    1.6534    2.1304 H   0  0  0  0  0  0  0  0  0  0  0  0
   -1.5237    2.7496    0.8103 H   0  0  0  0  0  0  0  0  0  0  0  0
   -4.2810    2.6122    2.1429 H   0  0  0  0  0  0  0  0  0  0  0  0
   -3.0662    3.8715    2.4232 H   0  0  0  0  0  0  0  0  0  0  0  0
   -3.8318    3.7136    0.8328 H   0  0  0  0  0  0  0  0  0  0  0  0
   -4.4276   -0.7817   -0.0751 H   0  0  0  0  0  0  0  0  0  0  0  0
   -5.2481   -0.3377   -1.5958 H   0  0  0  0  0  0  0  0  0  0  0  0
   -5.2293   -2.7963   -1.3719 H   0  0  0  0  0  0  0  0  0  0  0  0
   -4.1645   -2.3227   -2.7059 H   0  0  0  0  0  0  0  0  0  0  0  0
   -3.4748   -2.7980   -1.1463 H   0  0  0  0  0  0  0  0  0  0  0  0
  1  2  1  0  0  0  0
  2  3  1  0  0  0  0
  3  4  2  0  0  0  0
  4  5  2  0  0  0  0
  4  6  2  0  0  0  0
  6  7  1  0  0  0  0
  7  8  1  0  0  0  0
  4  9  1  0  0  0  0
  9 10  1  0  0  0  0
 10 11  1  0  0  0  0
 11 12  1  0  0  0  0
 12 13  2  0  0  0  0
 12 14  2  0  0  0  0
 14 15  1  0  0  0  0
 15 16  1  0  0  0  0
 12 17  2  0  0  0  0
 17 18  1  0  0  0  0
 18 19  1  0  0  0  0
  1 20  1  0  0  0  0
  1 21  1  0  0  0  0
  1 22  1  0  0  0  0
  2 23  1  0  0  0  0
  2 24  1  0  0  0  0
  7 25  1  0  0  0  0
  7 26  1  0  0  0  0
  8 27  1  0  0  0  0
  8 28  1  0  0  0  0
  8 29  1  0  0  0  0
 10 30  1  0  0  0  0
 10 31  1  0  0  0  0
 15 32  1  0  0  0  0
 15 33  1  0  0  0  0
 16 34  1  0  0  0  0
 16 35  1  0  0  0  0
 16 36  1  0  0  0  0
 18 37  1  0  0  0  0
 18 38  1  0  0  0  0
 19 39  1  0  0  0  0
 19 40  1  0  0  0  0
 19 41  1  0  0  0  0
M  END
