 xtb: 6.7.1 (edcfbbe)
          04092505213D

 41 40  0     0  0            999 V2000
    5.2627    1.2434   -0.5418 C   0  0  0  0  0  0  0  0  0  0  0  0
    4.7372   -0.1239   -0.1539 C   0  0  0  0  0  0  0  0  0  0  0  0
    3.6245    0.0022    0.7655 O   0  0  0  0  0  0  0  0  0  0  0  0
    2.1120   -0.1907    0.3357 P   0  0  0  0  0  0  0  0  0  0  0  0
    0.9621   -0.0074    1.9023 S   0  0  0  0  0  0  0  0  0  0  0  0
    2.0044   -1.5776   -0.4569 O   0  0  0  0  0  0  0  0  0  0  0  0
    1.7412   -2.8230    0.2121 C   0  0  0  0  0  0  0  0  0  0  0  0
    2.9191   -3.2664    1.0546 C   0  0  0  0  0  0  0  0  0  0  0  0
    1.8839    1.1085   -1.3073 S   0  0  0  0  0  0  0  0  0  0  0  0
    0.1505    0.7963   -1.7175 C   0  0  0  0  0  0  0  0  0  0  0  0
   -1.0028    1.6852   -0.6209 S   0  0  0  0  0  0  0  0  0  0  0  0
   -2.3345    0.0765   -0.1909 P   0  0  0  0  0  0  0  0  0  0  0  0
   -1.5844   -1.7269   -0.2736 S   0  0  0  0  0  0  0  0  0  0  0  0
   -3.4913    0.1897   -1.2545 O   0  0  0  0  0  0  0  0  0  0  0  0
   -4.2805    1.3932   -1.4356 C   0  0  0  0  0  0  0  0  0  0  0  0
   -4.6560    1.4945   -2.8995 C   0  0  0  0  0  0  0  0  0  0  0  0
   -3.0860    0.5665    1.1177 O   0  0  0  0  0  0  0  0  0  0  0  0
   -2.5148    0.7447    2.4264 C   0  0  0  0  0  0  0  0  0  0  0  0
   -2.4574   -0.5644    3.1865 C   0  0  0  0  0  0  0  0  0  0  0  0
    5.5251    1.8058    0.3499 H   0  0  0  0  0  0  0  0  0  0  0  0
    6.1449    1.1211   -1.1622 H   0  0  0  0  0  0  0  0  0  0  0  0
    4.5091    1.7975   -1.0974 H   0  0  0  0  0  0  0  0  0  0  0  0
    5.4872   -0.6915    0.4000 H   0  0  0  0  0  0  0  0  0  0  0  0
    4.4152   -0.6906   -1.0310 H   0  0  0  0  0  0  0  0  0  0  0  0
    0.8419   -2.7069    0.8249 H   0  0  0  0  0  0  0  0  0  0  0  0
    1.5298   -3.5191   -0.6008 H   0  0  0  0  0  0  0  0  0  0  0  0
    2.6942   -4.2290    1.5026 H   0  0  0  0  0  0  0  0  0  0  0  0
    3.8125   -3.3537    0.4415 H   0  0  0  0  0  0  0  0  0  0  0  0
    3.0989   -2.5408    1.8479 H   0  0  0  0  0  0  0  0  0  0  0  0
   -0.0587   -0.2745   -1.6473 H   0  0  0  0  0  0  0  0  0  0  0  0
    0.0177    1.1653   -2.7309 H   0  0  0  0  0  0  0  0  0  0  0  0
   -5.1615    1.2993   -0.7987 H   0  0  0  0  0  0  0  0  0  0  0  0
   -3.6893    2.2551   -1.1118 H   0  0  0  0  0  0  0  0  0  0  0  0
   -5.1880    0.5991   -3.2079 H   0  0  0  0  0  0  0  0  0  0  0  0
   -5.2939    2.3605   -3.0438 H   0  0  0  0  0  0  0  0  0  0  0  0
   -3.7646    1.6000   -3.5115 H   0  0  0  0  0  0  0  0  0  0  0  0
   -1.5166    1.1802    2.3351 H   0  0  0  0  0  0  0  0  0  0  0  0
   -3.1861    1.4573    2.9093 H   0  0  0  0  0  0  0  0  0  0  0  0
   -2.1064   -0.3743    4.1953 H   0  0  0  0  0  0  0  0  0  0  0  0
   -3.4409   -1.0253    3.2209 H   0  0  0  0  0  0  0  0  0  0  0  0
   -1.7623   -1.2470    2.7018 H   0  0  0  0  0  0  0  0  0  0  0  0
  1  2  1  0  0  0  0
  2  3  1  0  0  0  0
  3  4  2  0  0  0  0
  4  5  2  0  0  0  0
  4  6  1  0  0  0  0
  6  7  1  0  0  0  0
  7  8  1  0  0  0  0
  4  9  1  0  0  0  0
  9 10  1  0  0  0  0
 10 11  1  0  0  0  0
 11 12  1  0  0  0  0
 12 13  2  0  0  0  0
 12 14  2  0  0  0  0
 14 15  1  0  0  0  0
 15 16  1  0  0  0  0
 12 17  2  0  0  0  0
 17 18  1  0  0  0  0
 18 19  1  0  0  0  0
  1 20  1  0  0  0  0
  1 21  1  0  0  0  0
  1 22  1  0  0  0  0
  2 23  1  0  0  0  0
  2 24  1  0  0  0  0
  7 25  1  0  0  0  0
  7 26  1  0  0  0  0
  8 27  1  0  0  0  0
  8 28  1  0  0  0  0
  8 29  1  0  0  0  0
 10 30  1  0  0  0  0
 10 31  1  0  0  0  0
 15 32  1  0  0  0  0
 15 33  1  0  0  0  0
 16 34  1  0  0  0  0
 16 35  1  0  0  0  0
 16 36  1  0  0  0  0
 18 37  1  0  0  0  0
 18 38  1  0  0  0  0
 19 39  1  0  0  0  0
 19 40  1  0  0  0  0
 19 41  1  0  0  0  0
M  END
