  25
 
 C         -2.4588314809        0.7390402633       -1.2564023483
 C         -1.9743976959        0.0026376543        0.0011139748
 C         -2.4578271448        0.7444148652        1.2558413489
 C         -2.5977907850       -1.3960224746        0.0047750447
 C         -0.4537101126       -0.0347879854        0.0000426657
 C          0.2778924605       -1.2167852559       -0.0024985310
 C          1.6602498279       -1.2119540747       -0.0028590618
 C          2.3590976592       -0.0115524171       -0.0009278034
 C          1.6445448293        1.1793649827        0.0005373234
 C          0.2632787922        1.1583130353        0.0008914691
 O          3.7219094603       -0.0520137962       -0.0007456356
 H         -2.0990487226        0.2323305773       -2.1493618654
 H         -3.5459575738        0.7577269181       -1.2831101739
 H         -2.0993824034        1.7638418351       -1.2778159708
 H         -2.1020131392        0.2383569913        2.1507406681
 H         -2.0941528939        1.7677178269        1.2755577337
 H         -3.5449125853        0.7679572495        1.2803517504
 H         -2.2998606588       -1.9540305285        0.8892195266
 H         -3.6821387407       -1.3081791007        0.0116325086
 H         -2.3108451966       -1.9537957879       -0.8833873137
 H         -0.2199974589       -2.1720634254       -0.0043308926
 H          2.2172089865       -2.1361666212       -0.0045329984
 H          2.1675672705        2.1253625881        0.0014587802
 H         -0.2580810180        2.1034207129        0.0017856692
 H          4.0853314571        0.8460672059        0.0006255629
          25
        -32.62667881
 C         -2.4554778255       -0.7373148436       -1.2527501208
 C         -1.9660855327        0.0030375070        0.0002433137
 C         -2.5839174307        1.4042435631       -0.0022963362
 C         -2.4499021390       -0.7307852775        1.2593422440
 C         -0.4452033491        0.0339739809       -0.0018959040
 C          0.2678078937       -1.1636145112       -0.0017936137
 C          1.6465879734       -1.1896193637       -0.0011007476
 C          2.3673811301        0.0000874433       -0.0001329512
 C          1.6748354026        1.2015928770       -0.0008597438
 C          0.2901138268        1.2115873250       -0.0018592461
 O          3.7290586811       -0.0665931292        0.0018170349
 H         -3.5428243101       -0.7563164599       -1.2747247589
 H         -2.0993387707       -0.2342292716       -2.1494382593
 H         -2.0958701091       -1.7621560317       -1.2719102092
 H         -2.2905597784        1.9586929319       -0.8903880713
 H         -3.6685028704        1.3203908276       -0.0009882111
 H         -2.2887965041        1.9626644917        0.8827402645
 H         -2.0873707599       -0.2246001266        2.1515184663
 H         -3.5370255682       -0.7472979461        1.2879819048
 H         -2.0923206369       -1.7562258449        1.2808624421
 H         -0.2570861363       -2.1064964043       -0.0020829772
 H          2.1867687657       -2.1237021683       -0.0009095343
 H          2.2149924796        2.1379361281       -0.0004500121
 H         -0.2045825761        2.1686623653       -0.0023380445
 H          4.1099833922        0.8242715496       -0.0017373376
