 xtb: 6.7.1 (edcfbbe)
          04092509483D

 38 37  0     0  0            999 V2000
    3.4202   -3.8138   -0.7042 C   0  0  0  0  0  0  0  0  0  0  0  0
    4.1066   -2.4944   -1.0194 C   0  0  0  0  0  0  0  0  0  0  0  0
    3.1964   -1.5676   -1.6443 O   0  0  0  0  0  0  0  0  0  0  0  0
    2.4234   -0.8159   -0.8894 C   0  0  0  0  0  0  0  0  0  0  0  0
    2.4084   -0.8280    0.3237 O   0  0  0  0  0  0  0  0  0  0  0  0
    1.5702    0.1105   -1.7330 C   0  0  0  0  0  0  0  0  0  0  0  0
    0.3458    0.5724   -0.9567 C   0  0  0  0  0  0  0  0  0  0  0  0
   -0.2044    1.3352   -1.5178 H   0  0  0  0  0  0  0  0  0  0  0  0
    0.7039    1.1823    0.3900 C   0  0  0  0  0  0  0  0  0  0  0  0
    0.1093    0.9210    1.4142 O   0  0  0  0  0  0  0  0  0  0  0  0
    1.6465    2.0832    0.2497 O   0  0  0  0  0  0  0  0  0  0  0  0
    2.1076    2.8258    1.3981 C   0  0  0  0  0  0  0  0  0  0  0  0
    3.2534    2.1011    2.0844 C   0  0  0  0  0  0  0  0  0  0  0  0
   -0.7839   -0.8395   -0.6988 S   0  0  0  0  0  0  0  0  0  0  0  0
   -2.4014    0.1562    0.2332 P   0  0  0  0  0  0  0  0  0  0  0  0
   -2.6069    2.0621   -0.1479 S   0  0  0  0  0  0  0  0  0  0  0  0
   -3.6391   -0.7430   -0.2623 O   0  0  0  0  0  0  0  0  0  0  0  0
   -4.1449   -0.6967   -1.6016 C   0  0  0  0  0  0  0  0  0  0  0  0
   -2.4468   -0.1957    1.7723 O   0  0  0  0  0  0  0  0  0  0  0  0
   -2.1053   -1.5039    2.2655 C   0  0  0  0  0  0  0  0  0  0  0  0
    3.0141   -4.2534   -1.6108 H   0  0  0  0  0  0  0  0  0  0  0  0
    4.1423   -4.4963   -0.2675 H   0  0  0  0  0  0  0  0  0  0  0  0
    2.6108   -3.6550    0.0049 H   0  0  0  0  0  0  0  0  0  0  0  0
    4.9006   -2.6278   -1.7547 H   0  0  0  0  0  0  0  0  0  0  0  0
    4.5028   -2.0367   -0.1087 H   0  0  0  0  0  0  0  0  0  0  0  0
    1.2766   -0.4030   -2.6474 H   0  0  0  0  0  0  0  0  0  0  0  0
    2.1791    0.9792   -1.9919 H   0  0  0  0  0  0  0  0  0  0  0  0
    2.4343    3.7806    0.9832 H   0  0  0  0  0  0  0  0  0  0  0  0
    1.2678    2.9770    2.0817 H   0  0  0  0  0  0  0  0  0  0  0  0
    4.0675    1.9403    1.3828 H   0  0  0  0  0  0  0  0  0  0  0  0
    3.6098    2.6984    2.9170 H   0  0  0  0  0  0  0  0  0  0  0  0
    2.9158    1.1350    2.4531 H   0  0  0  0  0  0  0  0  0  0  0  0
   -4.3626    0.3344   -1.8834 H   0  0  0  0  0  0  0  0  0  0  0  0
   -5.0588   -1.2865   -1.5874 H   0  0  0  0  0  0  0  0  0  0  0  0
   -3.4212   -1.1285   -2.2924 H   0  0  0  0  0  0  0  0  0  0  0  0
   -2.4171   -1.5075    3.3063 H   0  0  0  0  0  0  0  0  0  0  0  0
   -1.0264   -1.6432    2.1904 H   0  0  0  0  0  0  0  0  0  0  0  0
   -2.6296   -2.2723    1.6992 H   0  0  0  0  0  0  0  0  0  0  0  0
  1  2  1  0  0  0  0
  2  3  1  0  0  0  0
  3  4  1  0  0  0  0
  4  5  2  0  0  0  0
  4  6  1  0  0  0  0
  6  7  1  0  0  0  0
  7  8  1  0  0  0  0
  7  9  1  0  0  0  0
  9 10  2  0  0  0  0
  9 11  4  0  0  0  0
 11 12  1  0  0  0  0
 12 13  1  0  0  0  0
  7 14  1  0  0  0  0
 14 15  1  0  0  0  0
 15 16  2  0  0  0  0
 15 17  1  0  0  0  0
 17 18  1  0  0  0  0
 15 19  2  0  0  0  0
 19 20  1  0  0  0  0
  1 21  1  0  0  0  0
  1 22  1  0  0  0  0
  1 23  1  0  0  0  0
  2 24  1  0  0  0  0
  2 25  1  0  0  0  0
  6 26  1  0  0  0  0
  6 27  1  0  0  0  0
 12 28  1  0  0  0  0
 12 29  1  0  0  0  0
 13 30  1  0  0  0  0
 13 31  1  0  0  0  0
 13 32  1  0  0  0  0
 18 33  1  0  0  0  0
 18 34  1  0  0  0  0
 18 35  1  0  0  0  0
 20 36  1  0  0  0  0
 20 37  1  0  0  0  0
 20 38  1  0  0  0  0
M  END
