 xtb: 6.7.1 (edcfbbe)
          04092505203D

 41 40  0     0  0            999 V2000
    2.1805   -0.1816   -3.0769 C   0  0  0  0  0  0  0  0  0  0  0  0
    2.9698    0.5150   -1.9867 C   0  0  0  0  0  0  0  0  0  0  0  0
    2.1119    0.8601   -0.8644 O   0  0  0  0  0  0  0  0  0  0  0  0
    2.0765    0.0700    0.4996 P   0  0  0  0  0  0  0  0  0  0  0  0
    0.8546    0.9692    1.7430 S   0  0  0  0  0  0  0  0  0  0  0  0
    3.6220    0.0352    0.8701 O   0  0  0  0  0  0  0  0  0  0  0  0
    4.2377   -0.8649    1.8100 C   0  0  0  0  0  0  0  0  0  0  0  0
    3.5968   -0.8098    3.1807 C   0  0  0  0  0  0  0  0  0  0  0  0
    1.6578   -1.9757    0.0874 S   0  0  0  0  0  0  0  0  0  0  0  0
   -0.1431   -1.8790    0.1097 C   0  0  0  0  0  0  0  0  0  0  0  0
   -0.7950   -0.7409   -1.1504 S   0  0  0  0  0  0  0  0  0  0  0  0
   -2.1848    0.3887    0.0013 P   0  0  0  0  0  0  0  0  0  0  0  0
   -2.5584   -0.3360    1.7823 S   0  0  0  0  0  0  0  0  0  0  0  0
   -3.4144    0.5293   -1.0033 O   0  0  0  0  0  0  0  0  0  0  0  0
   -4.0632   -0.5535   -1.6941 C   0  0  0  0  0  0  0  0  0  0  0  0
   -4.7326   -1.5340   -0.7534 C   0  0  0  0  0  0  0  0  0  0  0  0
   -1.7348    1.8945    0.1045 O   0  0  0  0  0  0  0  0  0  0  0  0
   -1.7474    2.8718   -0.9629 C   0  0  0  0  0  0  0  0  0  0  0  0
   -0.8158    2.5040   -2.0985 C   0  0  0  0  0  0  0  0  0  0  0  0
    1.3417    0.4342   -3.3880 H   0  0  0  0  0  0  0  0  0  0  0  0
    2.8348   -0.3519   -3.9259 H   0  0  0  0  0  0  0  0  0  0  0  0
    1.7966   -1.1365   -2.7270 H   0  0  0  0  0  0  0  0  0  0  0  0
    3.3621    1.4734   -2.3306 H   0  0  0  0  0  0  0  0  0  0  0  0
    3.7902   -0.1085   -1.6275 H   0  0  0  0  0  0  0  0  0  0  0  0
    4.1850   -1.8769    1.3989 H   0  0  0  0  0  0  0  0  0  0  0  0
    5.2757   -0.5291    1.8423 H   0  0  0  0  0  0  0  0  0  0  0  0
    3.5969    0.2097    3.5594 H   0  0  0  0  0  0  0  0  0  0  0  0
    2.5641   -1.1528    3.1288 H   0  0  0  0  0  0  0  0  0  0  0  0
    4.1474   -1.4484    3.8639 H   0  0  0  0  0  0  0  0  0  0  0  0
   -0.4934   -1.5375    1.0885 H   0  0  0  0  0  0  0  0  0  0  0  0
   -0.4981   -2.8840   -0.1052 H   0  0  0  0  0  0  0  0  0  0  0  0
   -4.7955   -0.0478   -2.3262 H   0  0  0  0  0  0  0  0  0  0  0  0
   -3.3208   -1.0592   -2.3181 H   0  0  0  0  0  0  0  0  0  0  0  0
   -3.9897   -2.0362   -0.1365 H   0  0  0  0  0  0  0  0  0  0  0  0
   -5.4239   -1.0144   -0.0944 H   0  0  0  0  0  0  0  0  0  0  0  0
   -5.2746   -2.2740   -1.3333 H   0  0  0  0  0  0  0  0  0  0  0  0
   -2.7760    2.9807   -1.3125 H   0  0  0  0  0  0  0  0  0  0  0  0
   -1.4248    3.7856   -0.4606 H   0  0  0  0  0  0  0  0  0  0  0  0
   -0.7693    3.3303   -2.8010 H   0  0  0  0  0  0  0  0  0  0  0  0
    0.1813    2.3053   -1.7104 H   0  0  0  0  0  0  0  0  0  0  0  0
   -1.1788    1.6163   -2.6149 H   0  0  0  0  0  0  0  0  0  0  0  0
  1  2  1  0  0  0  0
  2  3  1  0  0  0  0
  3  4  2  0  0  0  0
  4  5  2  0  0  0  0
  4  6  2  0  0  0  0
  6  7  1  0  0  0  0
  7  8  1  0  0  0  0
  4  9  1  0  0  0  0
  9 10  1  0  0  0  0
 10 11  1  0  0  0  0
 11 12  1  0  0  0  0
 12 13  2  0  0  0  0
 12 14  2  0  0  0  0
 14 15  1  0  0  0  0
 15 16  1  0  0  0  0
 12 17  2  0  0  0  0
 17 18  1  0  0  0  0
 18 19  1  0  0  0  0
  1 20  1  0  0  0  0
  1 21  1  0  0  0  0
  1 22  1  0  0  0  0
  2 23  1  0  0  0  0
  2 24  1  0  0  0  0
  7 25  1  0  0  0  0
  7 26  1  0  0  0  0
  8 27  1  0  0  0  0
  8 28  1  0  0  0  0
  8 29  1  0  0  0  0
 10 30  1  0  0  0  0
 10 31  1  0  0  0  0
 15 32  1  0  0  0  0
 15 33  1  0  0  0  0
 16 34  1  0  0  0  0
 16 35  1  0  0  0  0
 16 36  1  0  0  0  0
 18 37  1  0  0  0  0
 18 38  1  0  0  0  0
 19 39  1  0  0  0  0
 19 40  1  0  0  0  0
 19 41  1  0  0  0  0
M  END
