  18
 
 C         -3.3742993321        0.6225889377        0.0709349618
 O         -1.9530527540        0.7572255535        0.0444658447
 C         -1.2296818961       -0.3606251807        0.1119068646
 O         -1.7343253045       -1.4660133336        0.2038441186
 C          0.2249272578       -0.1121562083        0.0685197800
 C          1.0906348775       -1.1999944747        0.1735271200
 C          2.4575263772       -1.0027611663        0.1311896638
 C          2.9670484821        0.2782465288       -0.0172396425
 C          2.1094418314        1.3630944713       -0.1223933026
 C          0.7409054897        1.1746020937       -0.0796960251
 H         -3.7605335664        1.6202489398        0.2561712838
 H         -3.6709588096       -0.0696509794        0.8604882801
 H         -3.7271143061        0.2408878428       -0.8885808862
 H          0.6670923042       -2.1867194550        0.2870849066
 H          3.1251315583       -1.8459627152        0.2133825384
 H          4.0345552414        0.4314267116       -0.0512548020
 H          2.5095683940        2.3581694087       -0.2383710199
 H          0.0646428446        2.0103105909       -0.1613465060
          18
        -29.34088786
 C         -3.3745767457        0.6176314639        0.0004863113
 O         -1.9541894893        0.7608538354       -0.0019141129
 C         -1.2315755111       -0.3592694727       -0.0008365396
 O         -1.7406776665       -1.4665234568        0.0020719334
 C          0.2239477423       -0.1133744118       -0.0003704897
 C          1.0841635298       -1.2107228574       -0.0010398946
 C          2.4521931846       -1.0172787233       -0.0006702671
 C          2.9684113137        0.2697349802        0.0003925504
 C          2.1162702426        1.3639710659        0.0009279737
 C          0.7464372580        1.1791189919        0.0006160472
 H         -3.6968966826        0.0771487413       -0.8904312688
 H         -3.7701697320        1.6281447913        0.0090763277
 H         -3.6928743791        0.0631017043        0.8842268159
 H          0.6549961944       -2.2014665673       -0.0022218056
 H          3.1154018258       -1.8680283811       -0.0011323752
 H          4.0368430637        0.4200632890        0.0011024983
 H          2.5218062834        2.3636175619        0.0018169080
 H          0.0744368543        2.0221615728        0.0009482598
