 xtb: 6.7.1 (edcfbbe)
          04032519483D

  8  7  0     0  0            999 V2000
    0.6523    0.0001   -0.3882 C   0  0  0  0  0  0  0  0  0  0  0  0
   -0.6525    0.0001    0.3881 C   0  0  0  0  0  0  0  0  0  0  0  0
   -1.5920    1.4498   -0.0335 Cl  0  0  0  0  0  0  0  0  0  0  0  0
   -1.5922   -1.4494   -0.0334 Cl  0  0  0  0  0  0  0  0  0  0  0  0
    1.5919    1.4496    0.0333 Cl  0  0  0  0  0  0  0  0  0  0  0  0
    1.5918   -1.4496    0.0334 Cl  0  0  0  0  0  0  0  0  0  0  0  0
    0.4905    0.0000   -1.4682 H   0  0  0  0  0  0  0  0  0  0  0  0
   -0.4907    0.0002    1.4681 H   0  0  0  0  0  0  0  0  0  0  0  0
  1  2  1  0  0  0  0
  2  3  1  0  0  0  0
  2  4  1  0  0  0  0
  1  5  1  0  0  0  0
  1  6  1  0  0  0  0
  1  7  1  0  0  0  0
  2  8  1  0  0  0  0
M  END
