41
 xtb: 6.7.1 (edcfbbe)
C            5.68059052788913       -1.68994415908852       -1.37443574910952
C            4.40030786214048       -1.03137236795850       -1.82040376144366
O            4.07570392177713        0.07668296173985       -0.90007715396391
P            2.82843671265165       -0.00229496683871        0.10587703972287
S            2.76284955648768        1.53954788163520        1.28337310450583
O            3.04812709200897       -1.45436417525688        0.76340641340356
C            2.50441701943569       -1.82164905018007        2.08020191340210
C            1.00345965739414       -1.97309100249819        2.07524465071421
S            1.10795504794279       -0.33202059409075       -1.12257726417343
C            0.25506662581581        1.28970464592564       -1.03518498997701
S           -0.88252240308524        1.53949926839381        0.38601105259942
P           -2.46776025800447        0.24320349681930       -0.15100755718099
S           -2.91012940571769        0.12135770277704       -2.04535292286317
O           -3.62781457378211        0.74570854664612        0.84800564660712
C           -4.71923794214923        1.63339786130703        0.42540085140424
C           -4.27516418501997        3.07144849610855        0.32563718236734
O           -2.00949699995095       -1.12030392326957        0.56843085751182
C           -2.62610426465979       -2.41222992549988        0.22783498975072
C           -4.05032501024414       -2.51279850597955        0.71678411277785
H            5.56385753045771       -2.14963623518151       -0.38931450284517
H            5.94582724564423       -2.47165922792197       -2.09363469003803
H            6.49804869691467       -0.96455585916504       -1.33714470279216
H            3.57084007805427       -1.74415941320605       -1.85432003958319
H            4.49965983995924       -0.56526748367867       -2.80329411748391
H            3.00318899315229       -2.76728805778217        2.30103024096342
H            2.83482912246444       -1.06692656044360        2.80028888871290
H            0.69759854298016       -2.36680438326631        3.05036908689057
H            0.50080506541901       -1.01456394925858        1.92162985364958
H            0.67959706494685       -2.67503636888602        1.30164190878710
H           -0.31315209898609        1.38109487164234       -1.96530582967127
H            0.98485890235274        2.10053483995067       -0.97593576327219
H           -5.11756976831574        1.25982863204409       -0.52272675831340
H           -5.47179799127475        1.49886151737990        1.20505616890175
H           -3.55665671687278        3.21694103834797       -0.48591741498930
H           -5.15297220888133        3.69224682903112        0.11845041690431
H           -3.82757001835761        3.41005412617553        1.26458432892784
H           -2.55288872196949       -2.54984350143556       -0.85548465911520
H           -1.97828261645013       -3.13810896726455        0.72360928386338
H           -4.11076526486137       -2.31688505820740        1.79111666767139
H           -4.71011657479995       -1.81732012479708        0.18935868232174
H           -4.41058232996954       -3.52982129095745        0.53021333223927
