 xtb: 6.7.1 (edcfbbe)
          04032520413D

 12 12  0     0  0            999 V2000
   -0.6912   -2.0722   -0.0000 C   0  0  0  0  0  0  0  0  0  0  0  0
    0.6912   -2.0722    0.0000 C   0  0  0  0  0  0  0  0  0  0  0  0
    1.3856   -0.8717    0.0001 C   0  0  0  0  0  0  0  0  0  0  0  0
    0.6967    0.3391    0.0001 C   0  0  0  0  0  0  0  0  0  0  0  0
   -0.6967    0.3391    0.0001 C   0  0  0  0  0  0  0  0  0  0  0  0
   -1.3856   -0.8717    0.0001 C   0  0  0  0  0  0  0  0  0  0  0  0
   -3.1081   -0.8664   -0.0000 Cl  0  0  0  0  0  0  0  0  0  0  0  0
   -1.5536    1.8342   -0.0000 Cl  0  0  0  0  0  0  0  0  0  0  0  0
    1.5536    1.8342    0.0000 Cl  0  0  0  0  0  0  0  0  0  0  0  0
    3.1081   -0.8664   -0.0000 Cl  0  0  0  0  0  0  0  0  0  0  0  0
   -1.2377   -3.0003   -0.0002 H   0  0  0  0  0  0  0  0  0  0  0  0
    1.2378   -3.0003    0.0000 H   0  0  0  0  0  0  0  0  0  0  0  0
  1  2  4  0  0  0  0
  2  3  4  0  0  0  0
  3  4  4  0  0  0  0
  4  5  4  0  0  0  0
  1  6  4  0  0  0  0
  5  6  4  0  0  0  0
  6  7  1  0  0  0  0
  5  8  1  0  0  0  0
  4  9  1  0  0  0  0
  3 10  1  0  0  0  0
  1 11  1  0  0  0  0
  2 12  1  0  0  0  0
M  END
