 xtb: 6.7.1 (edcfbbe)
          04092505203D

 41 40  0     0  0            999 V2000
    4.5251    1.8159   -0.7372 C   0  0  0  0  0  0  0  0  0  0  0  0
    4.5789    0.3087   -0.8824 C   0  0  0  0  0  0  0  0  0  0  0  0
    3.2740   -0.2630   -1.0839 O   0  0  0  0  0  0  0  0  0  0  0  0
    2.1729   -0.2919    0.0599 P   0  0  0  0  0  0  0  0  0  0  0  0
    2.8582   -0.6404    1.8660 S   0  0  0  0  0  0  0  0  0  0  0  0
    1.1325   -1.3353   -0.5128 O   0  0  0  0  0  0  0  0  0  0  0  0
    1.1542   -2.7360   -0.1770 C   0  0  0  0  0  0  0  0  0  0  0  0
    2.3919   -3.4254   -0.7095 C   0  0  0  0  0  0  0  0  0  0  0  0
    1.0736    1.4877   -0.2227 S   0  0  0  0  0  0  0  0  0  0  0  0
    0.2442    1.4636    1.3905 C   0  0  0  0  0  0  0  0  0  0  0  0
   -0.8805    0.0577    1.6105 S   0  0  0  0  0  0  0  0  0  0  0  0
   -2.1661    0.3486   -0.0669 P   0  0  0  0  0  0  0  0  0  0  0  0
   -1.6933   -0.5364   -1.7571 S   0  0  0  0  0  0  0  0  0  0  0  0
   -2.2509    1.9288   -0.0352 O   0  0  0  0  0  0  0  0  0  0  0  0
   -3.3766    2.6895   -0.5317 C   0  0  0  0  0  0  0  0  0  0  0  0
   -3.5782    2.5136   -2.0218 C   0  0  0  0  0  0  0  0  0  0  0  0
   -3.6033   -0.0755    0.4704 O   0  0  0  0  0  0  0  0  0  0  0  0
   -4.0732   -1.4284    0.3664 C   0  0  0  0  0  0  0  0  0  0  0  0
   -3.3307   -2.3459    1.3159 C   0  0  0  0  0  0  0  0  0  0  0  0
    4.0152    2.0830    0.1876 H   0  0  0  0  0  0  0  0  0  0  0  0
    5.5357    2.2105   -0.7098 H   0  0  0  0  0  0  0  0  0  0  0  0
    3.9863    2.2563   -1.5727 H   0  0  0  0  0  0  0  0  0  0  0  0
    5.0210   -0.1474    0.0094 H   0  0  0  0  0  0  0  0  0  0  0  0
    5.1362    0.0077   -1.7704 H   0  0  0  0  0  0  0  0  0  0  0  0
    1.0918   -2.8291    0.9126 H   0  0  0  0  0  0  0  0  0  0  0  0
    0.2432   -3.1229   -0.6377 H   0  0  0  0  0  0  0  0  0  0  0  0
    2.4838   -3.2534   -1.7789 H   0  0  0  0  0  0  0  0  0  0  0  0
    3.2771   -3.0321   -0.2103 H   0  0  0  0  0  0  0  0  0  0  0  0
    2.3209   -4.4912   -0.5170 H   0  0  0  0  0  0  0  0  0  0  0  0
   -0.3061    2.3962    1.4762 H   0  0  0  0  0  0  0  0  0  0  0  0
    0.9896    1.3648    2.1806 H   0  0  0  0  0  0  0  0  0  0  0  0
   -4.2664    2.3866    0.0239 H   0  0  0  0  0  0  0  0  0  0  0  0
   -3.1126    3.7190   -0.2839 H   0  0  0  0  0  0  0  0  0  0  0  0
   -3.8441    1.4818   -2.2472 H   0  0  0  0  0  0  0  0  0  0  0  0
   -4.3768    3.1680   -2.3568 H   0  0  0  0  0  0  0  0  0  0  0  0
   -2.6634    2.7565   -2.5575 H   0  0  0  0  0  0  0  0  0  0  0  0
   -5.1340   -1.3630    0.6105 H   0  0  0  0  0  0  0  0  0  0  0  0
   -3.9454   -1.7603   -0.6697 H   0  0  0  0  0  0  0  0  0  0  0  0
   -3.4118   -1.9826    2.3370 H   0  0  0  0  0  0  0  0  0  0  0  0
   -3.7420   -3.3479    1.2521 H   0  0  0  0  0  0  0  0  0  0  0  0
   -2.2749   -2.3767    1.0433 H   0  0  0  0  0  0  0  0  0  0  0  0
  1  2  1  0  0  0  0
  2  3  1  0  0  0  0
  3  4  2  0  0  0  0
  4  5  2  0  0  0  0
  4  6  2  0  0  0  0
  6  7  1  0  0  0  0
  7  8  1  0  0  0  0
  4  9  1  0  0  0  0
  9 10  1  0  0  0  0
 10 11  1  0  0  0  0
 11 12  1  0  0  0  0
 12 13  2  0  0  0  0
 12 14  2  0  0  0  0
 14 15  1  0  0  0  0
 15 16  1  0  0  0  0
 12 17  2  0  0  0  0
 17 18  1  0  0  0  0
 18 19  1  0  0  0  0
  1 20  1  0  0  0  0
  1 21  1  0  0  0  0
  1 22  1  0  0  0  0
  2 23  1  0  0  0  0
  2 24  1  0  0  0  0
  7 25  1  0  0  0  0
  7 26  1  0  0  0  0
  8 27  1  0  0  0  0
  8 28  1  0  0  0  0
  8 29  1  0  0  0  0
 10 30  1  0  0  0  0
 10 31  1  0  0  0  0
 15 32  1  0  0  0  0
 15 33  1  0  0  0  0
 16 34  1  0  0  0  0
 16 35  1  0  0  0  0
 16 36  1  0  0  0  0
 18 37  1  0  0  0  0
 18 38  1  0  0  0  0
 19 39  1  0  0  0  0
 19 40  1  0  0  0  0
 19 41  1  0  0  0  0
M  END
