41
 xtb: 6.7.1 (edcfbbe)
C            5.09730417213518       -1.47078260755810       -0.88144628669001
C            4.87047291782225       -0.18626625515583       -0.12472420025118
O            3.53652009060710       -0.14204221134980        0.49083965931291
P            2.20136666162487        0.23578742498752       -0.32787829897354
S            2.41293152041761        1.33671479661496       -1.92021586450286
O            1.25804800819310        0.81904377020772        0.83313045408018
C            1.20597233721306        2.25811749509799        1.13276226781046
C            2.45909044600757        2.72955274159539        1.82963362080155
S            1.39011775838383       -1.69937071394293       -0.59930781853268
C           -0.10025168621609       -1.34220730847541       -1.62871394364019
S           -1.70330650385799       -1.75167738400214       -0.83416975249668
P           -2.33129726185243        0.12001752347332       -0.03357025655326
S           -1.94277720652242        1.67529111258921       -1.12895035120473
O           -1.73725521277785        0.27363302237083        1.44316666664029
C           -1.93170189773090       -0.76338832335214        2.47585600256803
C           -0.60288401687773       -1.02167675094914        3.13614052011085
O           -3.87013272184805       -0.22968110256623        0.28686931486418
C           -4.86879470155504       -0.34474232482712       -0.78743378802173
C           -6.22438138449334       -0.14185713302839       -0.16326723065307
H            4.44797029279554       -1.54134639744091       -1.75897612061843
H            6.13684706889674       -1.49423799295533       -1.22468138626059
H            4.92749637628360       -2.33999309394024       -0.23927380994923
H            4.98286541291332        0.69378956118278       -0.76473005700851
H            5.54682933190478       -0.09633058537533        0.72774270293655
H            1.02579204171618        2.79599243569209        0.19738224968735
H            0.32613229681057        2.35250655504878        1.77247833586939
H            2.32384572090697        3.77645603776629        2.12061612984643
H            2.65044865851559        2.14224602454893        2.73245448549775
H            3.33296411475188        2.66995340576959        1.17344414314588
H           -0.03893846944628       -1.98452357025528       -2.51040914985403
H           -0.09773107823435       -0.29552470312991       -1.95487185398289
H           -2.67204349499705       -0.36060007085653        3.17194563884854
H           -2.33523890279116       -1.67082406736420        2.01613113422201
H           -0.18351841758435       -0.09799753154767        3.54610024883621
H           -0.74707599311027       -1.73064483596274        3.95774347962528
H            0.10829788757099       -1.45269193098615        2.42533508441947
H           -4.65430435053543        0.41483822972943       -1.54593299742093
H           -4.76894655321423       -1.33951298396002       -1.23174340446438
H           -6.98924434613853       -0.24956822375042       -0.93839424485918
H           -6.41393646028204       -0.88757030632284        0.61401927375165
H           -6.30920557527418        0.85826813244574        0.27046634727170
