 xtb: 6.7.1 (edcfbbe)
          04032520513D

 17 17  0     0  0            999 V2000
    2.4050    1.0986   -0.0001 C   0  0  0  0  0  0  0  0  0  0  0  0
    1.1476    0.2860    0.0001 C   0  0  0  0  0  0  0  0  0  0  0  0
    1.1920   -1.1057    0.0001 C   0  0  0  0  0  0  0  0  0  0  0  0
    0.0000   -1.8093   -0.0000 C   0  0  0  0  0  0  0  0  0  0  0  0
   -1.1920   -1.1057   -0.0001 C   0  0  0  0  0  0  0  0  0  0  0  0
   -1.1476    0.2860   -0.0000 C   0  0  0  0  0  0  0  0  0  0  0  0
   -0.0000    0.9543    0.0000 N   0  0  0  0  0  0  0  0  0  0  0  0
   -2.4050    1.0986    0.0000 C   0  0  0  0  0  0  0  0  0  0  0  0
    2.9979    0.8704   -0.8835 H   0  0  0  0  0  0  0  0  0  0  0  0
    2.1577    2.1551    0.0041 H   0  0  0  0  0  0  0  0  0  0  0  0
    3.0025    0.8641    0.8785 H   0  0  0  0  0  0  0  0  0  0  0  0
    2.1418   -1.6176    0.0002 H   0  0  0  0  0  0  0  0  0  0  0  0
    0.0000   -2.8898   -0.0000 H   0  0  0  0  0  0  0  0  0  0  0  0
   -2.1418   -1.6176   -0.0002 H   0  0  0  0  0  0  0  0  0  0  0  0
   -3.0007    0.8667   -0.8805 H   0  0  0  0  0  0  0  0  0  0  0  0
   -2.9997    0.8678    0.8815 H   0  0  0  0  0  0  0  0  0  0  0  0
   -2.1577    2.1551   -0.0007 H   0  0  0  0  0  0  0  0  0  0  0  0
  1  2  1  0  0  0  0
  2  3  4  0  0  0  0
  3  4  4  0  0  0  0
  4  5  4  0  0  0  0
  5  6  4  0  0  0  0
  2  7  4  0  0  0  0
  6  7  4  0  0  0  0
  6  8  1  0  0  0  0
  1  9  1  0  0  0  0
  1 10  1  0  0  0  0
  1 11  1  0  0  0  0
  3 12  1  0  0  0  0
  4 13  1  0  0  0  0
  5 14  1  0  0  0  0
  8 15  1  0  0  0  0
  8 16  1  0  0  0  0
  8 17  1  0  0  0  0
M  END
