 xtb: 6.7.1 (edcfbbe)
          04092505203D

 41 40  0     0  0            999 V2000
    3.9773   -1.0111   -2.5073 C   0  0  0  0  0  0  0  0  0  0  0  0
    4.1785    0.3240   -1.8208 C   0  0  0  0  0  0  0  0  0  0  0  0
    3.6489    0.3335   -0.4834 O   0  0  0  0  0  0  0  0  0  0  0  0
    2.0944    0.2075   -0.1768 P   0  0  0  0  0  0  0  0  0  0  0  0
    0.9504    1.2251   -1.3961 S   0  0  0  0  0  0  0  0  0  0  0  0
    1.9669    0.7259    1.3037 O   0  0  0  0  0  0  0  0  0  0  0  0
    2.7239    0.2161    2.4301 C   0  0  0  0  0  0  0  0  0  0  0  0
    3.9854    1.0259    2.6462 C   0  0  0  0  0  0  0  0  0  0  0  0
    1.8303   -1.9016   -0.0460 S   0  0  0  0  0  0  0  0  0  0  0  0
    0.1354   -1.9677    0.5819 C   0  0  0  0  0  0  0  0  0  0  0  0
   -1.1466   -1.7393   -0.7038 S   0  0  0  0  0  0  0  0  0  0  0  0
   -2.0728    0.0284   -0.0146 P   0  0  0  0  0  0  0  0  0  0  0  0
   -1.2984    0.8705    1.5835 S   0  0  0  0  0  0  0  0  0  0  0  0
   -3.5910   -0.4124    0.1900 O   0  0  0  0  0  0  0  0  0  0  0  0
   -3.9935   -1.2206    1.3115 C   0  0  0  0  0  0  0  0  0  0  0  0
   -5.5073   -1.2059    1.3778 C   0  0  0  0  0  0  0  0  0  0  0  0
   -2.2073    0.8647   -1.3428 O   0  0  0  0  0  0  0  0  0  0  0  0
   -2.3557    2.2981   -1.3496 C   0  0  0  0  0  0  0  0  0  0  0  0
   -3.6851    2.7264   -0.7662 C   0  0  0  0  0  0  0  0  0  0  0  0
    2.9172   -1.1766   -2.6960 H   0  0  0  0  0  0  0  0  0  0  0  0
    4.5052   -1.0100   -3.4555 H   0  0  0  0  0  0  0  0  0  0  0  0
    4.3527   -1.8186   -1.8838 H   0  0  0  0  0  0  0  0  0  0  0  0
    3.6955    1.1260   -2.3878 H   0  0  0  0  0  0  0  0  0  0  0  0
    5.2364    0.5516   -1.6829 H   0  0  0  0  0  0  0  0  0  0  0  0
    2.0374    0.3128    3.2740 H   0  0  0  0  0  0  0  0  0  0  0  0
    2.9569   -0.8376    2.2538 H   0  0  0  0  0  0  0  0  0  0  0  0
    4.6567    0.9122    1.7994 H   0  0  0  0  0  0  0  0  0  0  0  0
    3.7372    2.0778    2.7596 H   0  0  0  0  0  0  0  0  0  0  0  0
    4.4795    0.6750    3.5468 H   0  0  0  0  0  0  0  0  0  0  0  0
   -0.0065   -1.2006    1.3490 H   0  0  0  0  0  0  0  0  0  0  0  0
    0.0139   -2.9679    0.9885 H   0  0  0  0  0  0  0  0  0  0  0  0
   -3.6117   -2.2345    1.1581 H   0  0  0  0  0  0  0  0  0  0  0  0
   -3.5462   -0.8019    2.2196 H   0  0  0  0  0  0  0  0  0  0  0  0
   -5.8656   -0.1924    1.5336 H   0  0  0  0  0  0  0  0  0  0  0  0
   -5.9207   -1.5858    0.4481 H   0  0  0  0  0  0  0  0  0  0  0  0
   -5.8337   -1.8325    2.2011 H   0  0  0  0  0  0  0  0  0  0  0  0
   -1.5187    2.7363   -0.7957 H   0  0  0  0  0  0  0  0  0  0  0  0
   -2.2629    2.5610   -2.4042 H   0  0  0  0  0  0  0  0  0  0  0  0
   -3.7921    3.8018   -0.8672 H   0  0  0  0  0  0  0  0  0  0  0  0
   -4.4985    2.2271   -1.2859 H   0  0  0  0  0  0  0  0  0  0  0  0
   -3.7263    2.4625    0.2903 H   0  0  0  0  0  0  0  0  0  0  0  0
  1  2  1  0  0  0  0
  2  3  1  0  0  0  0
  3  4  2  0  0  0  0
  4  5  2  0  0  0  0
  4  6  2  0  0  0  0
  6  7  1  0  0  0  0
  7  8  1  0  0  0  0
  4  9  1  0  0  0  0
  9 10  1  0  0  0  0
 10 11  1  0  0  0  0
 11 12  1  0  0  0  0
 12 13  2  0  0  0  0
 12 14  2  0  0  0  0
 14 15  1  0  0  0  0
 15 16  1  0  0  0  0
 12 17  2  0  0  0  0
 17 18  1  0  0  0  0
 18 19  1  0  0  0  0
  1 20  1  0  0  0  0
  1 21  1  0  0  0  0
  1 22  1  0  0  0  0
  2 23  1  0  0  0  0
  2 24  1  0  0  0  0
  7 25  1  0  0  0  0
  7 26  1  0  0  0  0
  8 27  1  0  0  0  0
  8 28  1  0  0  0  0
  8 29  1  0  0  0  0
 10 30  1  0  0  0  0
 10 31  1  0  0  0  0
 15 32  1  0  0  0  0
 15 33  1  0  0  0  0
 16 34  1  0  0  0  0
 16 35  1  0  0  0  0
 16 36  1  0  0  0  0
 18 37  1  0  0  0  0
 18 38  1  0  0  0  0
 19 39  1  0  0  0  0
 19 40  1  0  0  0  0
 19 41  1  0  0  0  0
M  END
