 xtb: 6.7.1 (edcfbbe)
          04092505213D

 41 40  0     0  0            999 V2000
    1.1240   -0.0689    2.9190 C   0  0  0  0  0  0  0  0  0  0  0  0
    2.6270   -0.0637    2.7296 C   0  0  0  0  0  0  0  0  0  0  0  0
    3.0142    0.5718    1.4987 O   0  0  0  0  0  0  0  0  0  0  0  0
    2.7278   -0.0795    0.0771 P   0  0  0  0  0  0  0  0  0  0  0  0
    2.9412   -2.0316    0.0015 S   0  0  0  0  0  0  0  0  0  0  0  0
    3.6808    0.7626   -0.8651 O   0  0  0  0  0  0  0  0  0  0  0  0
    5.0505    0.3831   -1.1151 C   0  0  0  0  0  0  0  0  0  0  0  0
    5.9127    0.4971    0.1248 C   0  0  0  0  0  0  0  0  0  0  0  0
    0.8872    0.7397   -0.5896 S   0  0  0  0  0  0  0  0  0  0  0  0
    0.0272   -0.7939   -1.0504 C   0  0  0  0  0  0  0  0  0  0  0  0
   -1.2902   -1.2270    0.1066 S   0  0  0  0  0  0  0  0  0  0  0  0
   -2.7053    0.1919   -0.6266 P   0  0  0  0  0  0  0  0  0  0  0  0
   -2.7752    0.3523   -2.5741 S   0  0  0  0  0  0  0  0  0  0  0  0
   -2.3919    1.5640    0.0692 O   0  0  0  0  0  0  0  0  0  0  0  0
   -2.2983    1.7264    1.5099 C   0  0  0  0  0  0  0  0  0  0  0  0
   -1.3716    2.8930    1.7817 C   0  0  0  0  0  0  0  0  0  0  0  0
   -4.0483   -0.2574    0.0916 O   0  0  0  0  0  0  0  0  0  0  0  0
   -4.7443   -1.4598   -0.3016 C   0  0  0  0  0  0  0  0  0  0  0  0
   -6.1344   -1.4055    0.2982 C   0  0  0  0  0  0  0  0  0  0  0  0
    0.8871   -0.4604    3.9031 H   0  0  0  0  0  0  0  0  0  0  0  0
    0.7311    0.9403    2.8279 H   0  0  0  0  0  0  0  0  0  0  0  0
    0.6542   -0.7047    2.1683 H   0  0  0  0  0  0  0  0  0  0  0  0
    3.0178   -1.0864    2.7294 H   0  0  0  0  0  0  0  0  0  0  0  0
    3.1277    0.5264    3.4982 H   0  0  0  0  0  0  0  0  0  0  0  0
    5.0594   -0.6420   -1.4993 H   0  0  0  0  0  0  0  0  0  0  0  0
    5.3711    1.0737   -1.8962 H   0  0  0  0  0  0  0  0  0  0  0  0
    6.9496    0.3186   -0.1425 H   0  0  0  0  0  0  0  0  0  0  0  0
    5.8153    1.4884    0.5594 H   0  0  0  0  0  0  0  0  0  0  0  0
    5.6054   -0.2435    0.8617 H   0  0  0  0  0  0  0  0  0  0  0  0
    0.7403   -1.6209   -1.0503 H   0  0  0  0  0  0  0  0  0  0  0  0
   -0.4152   -0.6472   -2.0365 H   0  0  0  0  0  0  0  0  0  0  0  0
   -3.3062    1.9142    1.8835 H   0  0  0  0  0  0  0  0  0  0  0  0
   -1.9179    0.7969    1.9436 H   0  0  0  0  0  0  0  0  0  0  0  0
   -1.7688    3.7965    1.3285 H   0  0  0  0  0  0  0  0  0  0  0  0
   -1.2830    3.0372    2.8539 H   0  0  0  0  0  0  0  0  0  0  0  0
   -0.3906    2.6985    1.3542 H   0  0  0  0  0  0  0  0  0  0  0  0
   -4.7778   -1.5005   -1.3952 H   0  0  0  0  0  0  0  0  0  0  0  0
   -4.1788   -2.3175    0.0719 H   0  0  0  0  0  0  0  0  0  0  0  0
   -6.6761   -2.3041    0.0222 H   0  0  0  0  0  0  0  0  0  0  0  0
   -6.0694   -1.3418    1.3803 H   0  0  0  0  0  0  0  0  0  0  0  0
   -6.6680   -0.5362   -0.0755 H   0  0  0  0  0  0  0  0  0  0  0  0
  1  2  1  0  0  0  0
  2  3  1  0  0  0  0
  3  4  2  0  0  0  0
  4  5  2  0  0  0  0
  4  6  2  0  0  0  0
  6  7  1  0  0  0  0
  7  8  1  0  0  0  0
  4  9  1  0  0  0  0
  9 10  1  0  0  0  0
 10 11  1  0  0  0  0
 11 12  1  0  0  0  0
 12 13  2  0  0  0  0
 12 14  2  0  0  0  0
 14 15  1  0  0  0  0
 15 16  1  0  0  0  0
 12 17  2  0  0  0  0
 17 18  1  0  0  0  0
 18 19  1  0  0  0  0
  1 20  1  0  0  0  0
  1 21  1  0  0  0  0
  1 22  1  0  0  0  0
  2 23  1  0  0  0  0
  2 24  1  0  0  0  0
  7 25  1  0  0  0  0
  7 26  1  0  0  0  0
  8 27  1  0  0  0  0
  8 28  1  0  0  0  0
  8 29  1  0  0  0  0
 10 30  1  0  0  0  0
 10 31  1  0  0  0  0
 15 32  1  0  0  0  0
 15 33  1  0  0  0  0
 16 34  1  0  0  0  0
 16 35  1  0  0  0  0
 16 36  1  0  0  0  0
 18 37  1  0  0  0  0
 18 38  1  0  0  0  0
 19 39  1  0  0  0  0
 19 40  1  0  0  0  0
 19 41  1  0  0  0  0
M  END
