 xtb: 6.7.1 (edcfbbe)
          04092514003D

 41 40  0     0  0            999 V2000
    3.2033   -2.6837   -1.5835 C   0  0  0  0  0  0  0  0  0  0  0  0
    4.3388   -1.8311   -1.0604 C   0  0  0  0  0  0  0  0  0  0  0  0
    4.0020   -0.4202   -1.0290 O   0  0  0  0  0  0  0  0  0  0  0  0
    2.8677    0.2293   -0.1547 P   0  0  0  0  0  0  0  0  0  0  0  0
    3.2018    2.1242    0.2111 S   0  0  0  0  0  0  0  0  0  0  0  0
    2.8727   -0.7173    1.1261 O   0  0  0  0  0  0  0  0  0  0  0  0
    2.1121   -0.4403    2.3171 C   0  0  0  0  0  0  0  0  0  0  0  0
    1.0123   -1.4706    2.4832 C   0  0  0  0  0  0  0  0  0  0  0  0
    1.0451   -0.1423   -1.2209 S   0  0  0  0  0  0  0  0  0  0  0  0
    0.1720    1.4025   -0.8763 C   0  0  0  0  0  0  0  0  0  0  0  0
   -0.7738    1.3749    0.6733 S   0  0  0  0  0  0  0  0  0  0  0  0
   -2.3538    0.1539   -0.0167 P   0  0  0  0  0  0  0  0  0  0  0  0
   -3.0014    0.4738   -1.8444 S   0  0  0  0  0  0  0  0  0  0  0  0
   -3.4531    0.2530    1.1260 O   0  0  0  0  0  0  0  0  0  0  0  0
   -4.5419    1.1914    1.0939 C   0  0  0  0  0  0  0  0  0  0  0  0
   -4.0833    2.6172    1.3243 C   0  0  0  0  0  0  0  0  0  0  0  0
   -1.7253   -1.2754    0.2528 O   0  0  0  0  0  0  0  0  0  0  0  0
   -2.1920   -2.4665   -0.4152 C   0  0  0  0  0  0  0  0  0  0  0  0
   -3.5662   -2.8849    0.0649 C   0  0  0  0  0  0  0  0  0  0  0  0
    2.8885   -2.3381   -2.5649 H   0  0  0  0  0  0  0  0  0  0  0  0
    3.5375   -3.7141   -1.6561 H   0  0  0  0  0  0  0  0  0  0  0  0
    2.3521   -2.6329   -0.9071 H   0  0  0  0  0  0  0  0  0  0  0  0
    5.2060   -1.8639   -1.7215 H   0  0  0  0  0  0  0  0  0  0  0  0
    4.6267   -2.1351   -0.0525 H   0  0  0  0  0  0  0  0  0  0  0  0
    2.8305   -0.4945    3.1378 H   0  0  0  0  0  0  0  0  0  0  0  0
    1.7075    0.5758    2.2648 H   0  0  0  0  0  0  0  0  0  0  0  0
    0.3025   -1.4116    1.6613 H   0  0  0  0  0  0  0  0  0  0  0  0
    1.4396   -2.4690    2.5115 H   0  0  0  0  0  0  0  0  0  0  0  0
    0.4859   -1.2782    3.4124 H   0  0  0  0  0  0  0  0  0  0  0  0
   -0.5118    1.5737   -1.7077 H   0  0  0  0  0  0  0  0  0  0  0  0
    0.8989    2.2120   -0.7844 H   0  0  0  0  0  0  0  0  0  0  0  0
   -5.0474    1.1036    0.1267 H   0  0  0  0  0  0  0  0  0  0  0  0
   -5.2037    0.8507    1.8915 H   0  0  0  0  0  0  0  0  0  0  0  0
   -4.9526    3.2628    1.4041 H   0  0  0  0  0  0  0  0  0  0  0  0
   -3.4984    2.6857    2.2380 H   0  0  0  0  0  0  0  0  0  0  0  0
   -3.4699    2.9547    0.4898 H   0  0  0  0  0  0  0  0  0  0  0  0
   -2.1968   -2.2787   -1.4936 H   0  0  0  0  0  0  0  0  0  0  0  0
   -1.4361   -3.2151   -0.1748 H   0  0  0  0  0  0  0  0  0  0  0  0
   -3.5740   -2.9830    1.1471 H   0  0  0  0  0  0  0  0  0  0  0  0
   -4.3063   -2.1411   -0.2273 H   0  0  0  0  0  0  0  0  0  0  0  0
   -3.8280   -3.8370   -0.3866 H   0  0  0  0  0  0  0  0  0  0  0  0
  1  2  1  0  0  0  0
  2  3  1  0  0  0  0
  3  4  2  0  0  0  0
  4  5  2  0  0  0  0
  4  6  2  0  0  0  0
  6  7  1  0  0  0  0
  7  8  1  0  0  0  0
  4  9  1  0  0  0  0
  9 10  1  0  0  0  0
 10 11  1  0  0  0  0
 11 12  1  0  0  0  0
 12 13  2  0  0  0  0
 12 14  2  0  0  0  0
 14 15  1  0  0  0  0
 15 16  1  0  0  0  0
 12 17  2  0  0  0  0
 17 18  1  0  0  0  0
 18 19  1  0  0  0  0
  1 20  1  0  0  0  0
  1 21  1  0  0  0  0
  1 22  1  0  0  0  0
  2 23  1  0  0  0  0
  2 24  1  0  0  0  0
  7 25  1  0  0  0  0
  7 26  1  0  0  0  0
  8 27  1  0  0  0  0
  8 28  1  0  0  0  0
  8 29  1  0  0  0  0
 10 30  1  0  0  0  0
 10 31  1  0  0  0  0
 15 32  1  0  0  0  0
 15 33  1  0  0  0  0
 16 34  1  0  0  0  0
 16 35  1  0  0  0  0
 16 36  1  0  0  0  0
 18 37  1  0  0  0  0
 18 38  1  0  0  0  0
 19 39  1  0  0  0  0
 19 40  1  0  0  0  0
 19 41  1  0  0  0  0
M  END
