 xtb: 6.7.1 (edcfbbe)
          04092505203D

 41 40  0     0  0            999 V2000
    4.2949   -0.2900   -2.1995 C   0  0  0  0  0  0  0  0  0  0  0  0
    4.4373    0.6540   -1.0234 C   0  0  0  0  0  0  0  0  0  0  0  0
    3.6651    0.2343    0.1154 O   0  0  0  0  0  0  0  0  0  0  0  0
    2.0759    0.1944    0.1108 P   0  0  0  0  0  0  0  0  0  0  0  0
    1.1918    1.6973   -0.7769 S   0  0  0  0  0  0  0  0  0  0  0  0
    1.7265    0.1400    1.6486 O   0  0  0  0  0  0  0  0  0  0  0  0
    2.2339   -0.8640    2.5628 C   0  0  0  0  0  0  0  0  0  0  0  0
    3.4667   -0.3621    3.2854 C   0  0  0  0  0  0  0  0  0  0  0  0
    1.6354   -1.7547   -0.6309 S   0  0  0  0  0  0  0  0  0  0  0  0
   -0.1210   -1.5124   -0.9459 C   0  0  0  0  0  0  0  0  0  0  0  0
   -1.0550   -1.1800    0.5926 S   0  0  0  0  0  0  0  0  0  0  0  0
   -2.5026    0.1993   -0.1383 P   0  0  0  0  0  0  0  0  0  0  0  0
   -2.2262    0.8512   -1.9722 S   0  0  0  0  0  0  0  0  0  0  0  0
   -2.6628    1.3259    0.9596 O   0  0  0  0  0  0  0  0  0  0  0  0
   -1.8988    2.5422    0.9972 C   0  0  0  0  0  0  0  0  0  0  0  0
   -0.9158    2.5090    2.1508 C   0  0  0  0  0  0  0  0  0  0  0  0
   -3.8886   -0.4909    0.1892 O   0  0  0  0  0  0  0  0  0  0  0  0
   -4.2184   -1.8558   -0.1227 C   0  0  0  0  0  0  0  0  0  0  0  0
   -4.2088   -2.1304   -1.6134 C   0  0  0  0  0  0  0  0  0  0  0  0
    4.4881   -1.3140   -1.8898 H   0  0  0  0  0  0  0  0  0  0  0  0
    3.2870   -0.2296   -2.6076 H   0  0  0  0  0  0  0  0  0  0  0  0
    5.0018   -0.0065   -2.9727 H   0  0  0  0  0  0  0  0  0  0  0  0
    4.1209    1.6644   -1.3002 H   0  0  0  0  0  0  0  0  0  0  0  0
    5.4614    0.6767   -0.6480 H   0  0  0  0  0  0  0  0  0  0  0  0
    1.4074   -1.0417    3.2535 H   0  0  0  0  0  0  0  0  0  0  0  0
    2.4470   -1.7781    2.0019 H   0  0  0  0  0  0  0  0  0  0  0  0
    4.2760   -0.1954    2.5798 H   0  0  0  0  0  0  0  0  0  0  0  0
    3.2469    0.5721    3.7948 H   0  0  0  0  0  0  0  0  0  0  0  0
    3.7744   -1.1046    4.0151 H   0  0  0  0  0  0  0  0  0  0  0  0
   -0.4744   -2.4415   -1.3861 H   0  0  0  0  0  0  0  0  0  0  0  0
   -0.2708   -0.6665   -1.6242 H   0  0  0  0  0  0  0  0  0  0  0  0
   -1.3842    2.6855    0.0401 H   0  0  0  0  0  0  0  0  0  0  0  0
   -2.6342    3.3385    1.1296 H   0  0  0  0  0  0  0  0  0  0  0  0
   -1.4397    2.2923    3.0772 H   0  0  0  0  0  0  0  0  0  0  0  0
   -0.1581    1.7458    1.9842 H   0  0  0  0  0  0  0  0  0  0  0  0
   -0.4253    3.4743    2.2251 H   0  0  0  0  0  0  0  0  0  0  0  0
   -3.5159   -2.5118    0.4005 H   0  0  0  0  0  0  0  0  0  0  0  0
   -5.2180   -1.9792    0.2976 H   0  0  0  0  0  0  0  0  0  0  0  0
   -4.8783   -1.4448   -2.1270 H   0  0  0  0  0  0  0  0  0  0  0  0
   -3.2068   -1.9918   -2.0174 H   0  0  0  0  0  0  0  0  0  0  0  0
   -4.5296   -3.1512   -1.7948 H   0  0  0  0  0  0  0  0  0  0  0  0
  1  2  1  0  0  0  0
  2  3  1  0  0  0  0
  3  4  2  0  0  0  0
  4  5  2  0  0  0  0
  4  6  2  0  0  0  0
  6  7  1  0  0  0  0
  7  8  1  0  0  0  0
  4  9  1  0  0  0  0
  9 10  1  0  0  0  0
 10 11  1  0  0  0  0
 11 12  1  0  0  0  0
 12 13  2  0  0  0  0
 12 14  2  0  0  0  0
 14 15  1  0  0  0  0
 15 16  1  0  0  0  0
 12 17  2  0  0  0  0
 17 18  1  0  0  0  0
 18 19  1  0  0  0  0
  1 20  1  0  0  0  0
  1 21  1  0  0  0  0
  1 22  1  0  0  0  0
  2 23  1  0  0  0  0
  2 24  1  0  0  0  0
  7 25  1  0  0  0  0
  7 26  1  0  0  0  0
  8 27  1  0  0  0  0
  8 28  1  0  0  0  0
  8 29  1  0  0  0  0
 10 30  1  0  0  0  0
 10 31  1  0  0  0  0
 15 32  1  0  0  0  0
 15 33  1  0  0  0  0
 16 34  1  0  0  0  0
 16 35  1  0  0  0  0
 16 36  1  0  0  0  0
 18 37  1  0  0  0  0
 18 38  1  0  0  0  0
 19 39  1  0  0  0  0
 19 40  1  0  0  0  0
 19 41  1  0  0  0  0
M  END
