 xtb: 6.7.1 (edcfbbe)
          04092505213D

 41 40  0     0  0            999 V2000
    5.6470    0.5307    0.1177 C   0  0  0  0  0  0  0  0  0  0  0  0
    4.2336    0.6359   -0.4189 C   0  0  0  0  0  0  0  0  0  0  0  0
    3.4350   -0.3678    0.2345 O   0  0  0  0  0  0  0  0  0  0  0  0
    1.8427   -0.2961    0.2243 P   0  0  0  0  0  0  0  0  0  0  0  0
    1.1513    1.4836    0.6909 S   0  0  0  0  0  0  0  0  0  0  0  0
    1.4863   -1.5311    1.1458 O   0  0  0  0  0  0  0  0  0  0  0  0
    2.2818   -1.9331    2.2861 C   0  0  0  0  0  0  0  0  0  0  0  0
    2.2463   -0.8995    3.3925 C   0  0  0  0  0  0  0  0  0  0  0  0
    1.3373   -1.0091   -1.7087 S   0  0  0  0  0  0  0  0  0  0  0  0
    0.1661    0.2652   -2.2504 C   0  0  0  0  0  0  0  0  0  0  0  0
   -1.5298   -0.3602   -2.4747 S   0  0  0  0  0  0  0  0  0  0  0  0
   -2.2862   -0.0943   -0.5305 P   0  0  0  0  0  0  0  0  0  0  0  0
   -4.1570   -0.6126   -0.2859 S   0  0  0  0  0  0  0  0  0  0  0  0
   -1.9551    1.4184   -0.1645 O   0  0  0  0  0  0  0  0  0  0  0  0
   -2.7796    2.5087   -0.6175 C   0  0  0  0  0  0  0  0  0  0  0  0
   -2.4421    3.7195    0.2289 C   0  0  0  0  0  0  0  0  0  0  0  0
   -1.2144   -0.8790    0.3463 O   0  0  0  0  0  0  0  0  0  0  0  0
   -1.5948   -1.3796    1.6473 C   0  0  0  0  0  0  0  0  0  0  0  0
   -1.7738   -0.2541    2.6435 C   0  0  0  0  0  0  0  0  0  0  0  0
    6.0424   -0.4634   -0.0700 H   0  0  0  0  0  0  0  0  0  0  0  0
    6.2714    1.2648   -0.3807 H   0  0  0  0  0  0  0  0  0  0  0  0
    5.6586    0.7194    1.1875 H   0  0  0  0  0  0  0  0  0  0  0  0
    4.2011    0.4496   -1.4958 H   0  0  0  0  0  0  0  0  0  0  0  0
    3.7974    1.6189   -0.2104 H   0  0  0  0  0  0  0  0  0  0  0  0
    1.8253   -2.8740    2.5984 H   0  0  0  0  0  0  0  0  0  0  0  0
    3.3041   -2.1124    1.9492 H   0  0  0  0  0  0  0  0  0  0  0  0
    2.6575    0.0434    3.0332 H   0  0  0  0  0  0  0  0  0  0  0  0
    1.2246   -0.7279    3.7222 H   0  0  0  0  0  0  0  0  0  0  0  0
    2.8400   -1.2485    4.2315 H   0  0  0  0  0  0  0  0  0  0  0  0
    0.4815    0.6097   -3.2311 H   0  0  0  0  0  0  0  0  0  0  0  0
    0.1666    1.0764   -1.5157 H   0  0  0  0  0  0  0  0  0  0  0  0
   -2.5639    2.6874   -1.6750 H   0  0  0  0  0  0  0  0  0  0  0  0
   -3.8304    2.2178   -0.5129 H   0  0  0  0  0  0  0  0  0  0  0  0
   -1.3742    3.9159    0.1781 H   0  0  0  0  0  0  0  0  0  0  0  0
   -2.9888    4.5796   -0.1427 H   0  0  0  0  0  0  0  0  0  0  0  0
   -2.7116    3.5404    1.2656 H   0  0  0  0  0  0  0  0  0  0  0  0
   -2.5221   -1.9511    1.5372 H   0  0  0  0  0  0  0  0  0  0  0  0
   -0.7767   -2.0463    1.9190 H   0  0  0  0  0  0  0  0  0  0  0  0
   -0.8995    0.3935    2.6396 H   0  0  0  0  0  0  0  0  0  0  0  0
   -2.6452    0.3406    2.3724 H   0  0  0  0  0  0  0  0  0  0  0  0
   -1.9214   -0.6675    3.6363 H   0  0  0  0  0  0  0  0  0  0  0  0
  1  2  1  0  0  0  0
  2  3  1  0  0  0  0
  3  4  2  0  0  0  0
  4  5  2  0  0  0  0
  4  6  2  0  0  0  0
  6  7  1  0  0  0  0
  7  8  1  0  0  0  0
  4  9  1  0  0  0  0
  9 10  1  0  0  0  0
 10 11  1  0  0  0  0
 11 12  1  0  0  0  0
 12 13  2  0  0  0  0
 12 14  2  0  0  0  0
 14 15  1  0  0  0  0
 15 16  1  0  0  0  0
 12 17  1  0  0  0  0
 17 18  1  0  0  0  0
 18 19  1  0  0  0  0
  1 20  1  0  0  0  0
  1 21  1  0  0  0  0
  1 22  1  0  0  0  0
  2 23  1  0  0  0  0
  2 24  1  0  0  0  0
  7 25  1  0  0  0  0
  7 26  1  0  0  0  0
  8 27  1  0  0  0  0
  8 28  1  0  0  0  0
  8 29  1  0  0  0  0
 10 30  1  0  0  0  0
 10 31  1  0  0  0  0
 15 32  1  0  0  0  0
 15 33  1  0  0  0  0
 16 34  1  0  0  0  0
 16 35  1  0  0  0  0
 16 36  1  0  0  0  0
 18 37  1  0  0  0  0
 18 38  1  0  0  0  0
 19 39  1  0  0  0  0
 19 40  1  0  0  0  0
 19 41  1  0  0  0  0
M  END
