 xtb: 6.7.1 (edcfbbe)
          04032520013D

 20 19  0     0  0            999 V2000
   -1.2334    1.0138   -1.2294 C   0  0  0  0  0  0  0  0  0  0  0  0
   -1.0112    0.1176   -0.0048 C   0  0  0  0  0  0  0  0  0  0  0  0
   -1.9452   -1.0906   -0.0524 C   0  0  0  0  0  0  0  0  0  0  0  0
   -1.2385    0.9199    1.2818 C   0  0  0  0  0  0  0  0  0  0  0  0
    0.4326   -0.3610   -0.0260 C   0  0  0  0  0  0  0  0  0  0  0  0
    0.7851   -1.5199   -0.0976 O   0  0  0  0  0  0  0  0  0  0  0  0
    1.2948    0.6476    0.0407 O   0  0  0  0  0  0  0  0  0  0  0  0
    2.6861    0.3241    0.0234 C   0  0  0  0  0  0  0  0  0  0  0  0
   -0.5599    1.8660   -1.2025 H   0  0  0  0  0  0  0  0  0  0  0  0
   -1.0563    0.4558   -2.1462 H   0  0  0  0  0  0  0  0  0  0  0  0
   -2.2587    1.3734   -1.2347 H   0  0  0  0  0  0  0  0  0  0  0  0
   -2.9797   -0.7607   -0.0451 H   0  0  0  0  0  0  0  0  0  0  0  0
   -1.7725   -1.7370    0.8047 H   0  0  0  0  0  0  0  0  0  0  0  0
   -1.7645   -1.6738   -0.9520 H   0  0  0  0  0  0  0  0  0  0  0  0
   -1.0644    0.2954    2.1552 H   0  0  0  0  0  0  0  0  0  0  0  0
   -0.5656    1.7720    1.3212 H   0  0  0  0  0  0  0  0  0  0  0  0
   -2.2640    1.2775    1.3099 H   0  0  0  0  0  0  0  0  0  0  0  0
    3.2082    1.2685    0.1405 H   0  0  0  0  0  0  0  0  0  0  0  0
    2.9461   -0.1529   -0.9223 H   0  0  0  0  0  0  0  0  0  0  0  0
    2.9210   -0.3593    0.8404 H   0  0  0  0  0  0  0  0  0  0  0  0
  1  2  1  0  0  0  0
  2  3  1  0  0  0  0
  2  4  1  0  0  0  0
  2  5  1  0  0  0  0
  5  6  2  0  0  0  0
  5  7  1  0  0  0  0
  7  8  1  0  0  0  0
  1  9  1  0  0  0  0
  1 10  1  0  0  0  0
  1 11  1  0  0  0  0
  3 12  1  0  0  0  0
  3 13  1  0  0  0  0
  3 14  1  0  0  0  0
  4 15  1  0  0  0  0
  4 16  1  0  0  0  0
  4 17  1  0  0  0  0
  8 18  1  0  0  0  0
  8 19  1  0  0  0  0
  8 20  1  0  0  0  0
M  END
