 xtb: 6.7.1 (edcfbbe)
          04092514033D

 41 40  0     0  0            999 V2000
    5.5773    1.2768   -1.8928 C   0  0  0  0  0  0  0  0  0  0  0  0
    4.2371    0.5667   -1.8981 C   0  0  0  0  0  0  0  0  0  0  0  0
    3.9635    0.0981   -0.5621 O   0  0  0  0  0  0  0  0  0  0  0  0
    2.4937   -0.0299    0.0034 P   0  0  0  0  0  0  0  0  0  0  0  0
    1.3474    1.5490   -0.2577 S   0  0  0  0  0  0  0  0  0  0  0  0
    2.9445   -0.4042    1.4705 O   0  0  0  0  0  0  0  0  0  0  0  0
    2.0932   -0.9999    2.4658 C   0  0  0  0  0  0  0  0  0  0  0  0
    1.2342    0.0342    3.1672 C   0  0  0  0  0  0  0  0  0  0  0  0
    1.7358   -1.8227   -0.8715 S   0  0  0  0  0  0  0  0  0  0  0  0
    0.0199   -1.3517   -1.1602 C   0  0  0  0  0  0  0  0  0  0  0  0
   -0.9988   -1.5034    0.3610 S   0  0  0  0  0  0  0  0  0  0  0  0
   -2.3358    0.0952    0.0655 P   0  0  0  0  0  0  0  0  0  0  0  0
   -2.4262    0.8541   -1.7448 S   0  0  0  0  0  0  0  0  0  0  0  0
   -1.8727    1.0255    1.2633 O   0  0  0  0  0  0  0  0  0  0  0  0
   -2.6160    2.1916    1.6834 C   0  0  0  0  0  0  0  0  0  0  0  0
   -2.2099    3.4245    0.8999 C   0  0  0  0  0  0  0  0  0  0  0  0
   -3.7418   -0.4117    0.6230 O   0  0  0  0  0  0  0  0  0  0  0  0
   -4.7893   -0.9359   -0.2102 C   0  0  0  0  0  0  0  0  0  0  0  0
   -4.4783   -2.3274   -0.7221 C   0  0  0  0  0  0  0  0  0  0  0  0
    5.8007    1.6205   -2.8977 H   0  0  0  0  0  0  0  0  0  0  0  0
    5.5462    2.1302   -1.2210 H   0  0  0  0  0  0  0  0  0  0  0  0
    6.3574    0.5976   -1.5621 H   0  0  0  0  0  0  0  0  0  0  0  0
    4.2555   -0.3053   -2.5572 H   0  0  0  0  0  0  0  0  0  0  0  0
    3.4338    1.2423   -2.2126 H   0  0  0  0  0  0  0  0  0  0  0  0
    1.4718   -1.7711    1.9979 H   0  0  0  0  0  0  0  0  0  0  0  0
    2.7931   -1.4683    3.1605 H   0  0  0  0  0  0  0  0  0  0  0  0
    0.5379    0.4918    2.4660 H   0  0  0  0  0  0  0  0  0  0  0  0
    0.6680   -0.4497    3.9567 H   0  0  0  0  0  0  0  0  0  0  0  0
    1.8596    0.8134    3.5950 H   0  0  0  0  0  0  0  0  0  0  0  0
   -0.3583   -2.0403   -1.9110 H   0  0  0  0  0  0  0  0  0  0  0  0
   -0.0292   -0.3168   -1.5075 H   0  0  0  0  0  0  0  0  0  0  0  0
   -3.6855    1.9904    1.5792 H   0  0  0  0  0  0  0  0  0  0  0  0
   -2.3648    2.2962    2.7404 H   0  0  0  0  0  0  0  0  0  0  0  0
   -2.5216    3.3418   -0.1392 H   0  0  0  0  0  0  0  0  0  0  0  0
   -2.6749    4.3001    1.3419 H   0  0  0  0  0  0  0  0  0  0  0  0
   -1.1285    3.5392    0.9225 H   0  0  0  0  0  0  0  0  0  0  0  0
   -5.6650   -0.9369    0.4411 H   0  0  0  0  0  0  0  0  0  0  0  0
   -4.9458   -0.2460   -1.0457 H   0  0  0  0  0  0  0  0  0  0  0  0
   -4.2482   -2.9954    0.1036 H   0  0  0  0  0  0  0  0  0  0  0  0
   -5.3404   -2.7064   -1.2625 H   0  0  0  0  0  0  0  0  0  0  0  0
   -3.6259   -2.2930   -1.3988 H   0  0  0  0  0  0  0  0  0  0  0  0
  1  2  1  0  0  0  0
  2  3  1  0  0  0  0
  3  4  2  0  0  0  0
  4  5  2  0  0  0  0
  4  6  2  0  0  0  0
  6  7  1  0  0  0  0
  7  8  1  0  0  0  0
  4  9  1  0  0  0  0
  9 10  1  0  0  0  0
 10 11  1  0  0  0  0
 11 12  1  0  0  0  0
 12 13  2  0  0  0  0
 12 14  2  0  0  0  0
 14 15  1  0  0  0  0
 15 16  1  0  0  0  0
 12 17  2  0  0  0  0
 17 18  1  0  0  0  0
 18 19  1  0  0  0  0
  1 20  1  0  0  0  0
  1 21  1  0  0  0  0
  1 22  1  0  0  0  0
  2 23  1  0  0  0  0
  2 24  1  0  0  0  0
  7 25  1  0  0  0  0
  7 26  1  0  0  0  0
  8 27  1  0  0  0  0
  8 28  1  0  0  0  0
  8 29  1  0  0  0  0
 10 30  1  0  0  0  0
 10 31  1  0  0  0  0
 15 32  1  0  0  0  0
 15 33  1  0  0  0  0
 16 34  1  0  0  0  0
 16 35  1  0  0  0  0
 16 36  1  0  0  0  0
 18 37  1  0  0  0  0
 18 38  1  0  0  0  0
 19 39  1  0  0  0  0
 19 40  1  0  0  0  0
 19 41  1  0  0  0  0
M  END
