 xtb: 6.7.1 (edcfbbe)
          04092513573D

 41 40  0     0  0            999 V2000
    6.1324    0.1484   -1.4941 C   0  0  0  0  0  0  0  0  0  0  0  0
    4.7350    0.6347   -1.1656 C   0  0  0  0  0  0  0  0  0  0  0  0
    4.0124   -0.4624   -0.5667 O   0  0  0  0  0  0  0  0  0  0  0  0
    2.6588   -0.2108    0.2057 P   0  0  0  0  0  0  0  0  0  0  0  0
    2.7035    1.1628    1.6090 S   0  0  0  0  0  0  0  0  0  0  0  0
    2.4812   -1.7034    0.6910 O   0  0  0  0  0  0  0  0  0  0  0  0
    1.4352   -2.1165    1.5919 C   0  0  0  0  0  0  0  0  0  0  0  0
    0.3578   -2.8759    0.8413 C   0  0  0  0  0  0  0  0  0  0  0  0
    1.2413    0.1467   -1.3534 S   0  0  0  0  0  0  0  0  0  0  0  0
    0.2190    1.4004   -0.5262 C   0  0  0  0  0  0  0  0  0  0  0  0
   -0.8559    0.7426    0.7767 S   0  0  0  0  0  0  0  0  0  0  0  0
   -2.5006    0.1791   -0.4723 P   0  0  0  0  0  0  0  0  0  0  0  0
   -2.0932   -1.0483   -1.9386 S   0  0  0  0  0  0  0  0  0  0  0  0
   -3.0936    1.5417   -0.9978 O   0  0  0  0  0  0  0  0  0  0  0  0
   -3.6378    2.5772   -0.1378 C   0  0  0  0  0  0  0  0  0  0  0  0
   -5.1472    2.4734   -0.0569 C   0  0  0  0  0  0  0  0  0  0  0  0
   -3.5961   -0.3219    0.5610 O   0  0  0  0  0  0  0  0  0  0  0  0
   -3.5575   -1.6345    1.1553 C   0  0  0  0  0  0  0  0  0  0  0  0
   -2.9181   -1.5907    2.5296 C   0  0  0  0  0  0  0  0  0  0  0  0
    6.6855    0.9511   -1.9709 H   0  0  0  0  0  0  0  0  0  0  0  0
    6.6468   -0.1533   -0.5862 H   0  0  0  0  0  0  0  0  0  0  0  0
    6.0794   -0.7026   -2.1668 H   0  0  0  0  0  0  0  0  0  0  0  0
    4.2010    0.9463   -2.0681 H   0  0  0  0  0  0  0  0  0  0  0  0
    4.7592    1.4687   -0.4555 H   0  0  0  0  0  0  0  0  0  0  0  0
    1.9292   -2.7615    2.3215 H   0  0  0  0  0  0  0  0  0  0  0  0
    1.0291   -1.2375    2.1056 H   0  0  0  0  0  0  0  0  0  0  0  0
    0.8010   -3.7070    0.3001 H   0  0  0  0  0  0  0  0  0  0  0  0
   -0.3707   -3.2569    1.5498 H   0  0  0  0  0  0  0  0  0  0  0  0
   -0.1466   -2.2329    0.1215 H   0  0  0  0  0  0  0  0  0  0  0  0
   -0.3866    1.8583   -1.3053 H   0  0  0  0  0  0  0  0  0  0  0  0
    0.8702    2.1270   -0.0408 H   0  0  0  0  0  0  0  0  0  0  0  0
   -3.1810    2.4942    0.8515 H   0  0  0  0  0  0  0  0  0  0  0  0
   -3.3330    3.5126   -0.6110 H   0  0  0  0  0  0  0  0  0  0  0  0
   -5.4391    1.5392    0.4149 H   0  0  0  0  0  0  0  0  0  0  0  0
   -5.5264    3.3049    0.5294 H   0  0  0  0  0  0  0  0  0  0  0  0
   -5.5789    2.5131   -1.0534 H   0  0  0  0  0  0  0  0  0  0  0  0
   -4.6034   -1.9404    1.2178 H   0  0  0  0  0  0  0  0  0  0  0  0
   -3.0226   -2.3116    0.4817 H   0  0  0  0  0  0  0  0  0  0  0  0
   -3.4573   -0.8989    3.1703 H   0  0  0  0  0  0  0  0  0  0  0  0
   -2.9533   -2.5829    2.9684 H   0  0  0  0  0  0  0  0  0  0  0  0
   -1.8823   -1.2655    2.4612 H   0  0  0  0  0  0  0  0  0  0  0  0
  1  2  1  0  0  0  0
  2  3  1  0  0  0  0
  3  4  2  0  0  0  0
  4  5  2  0  0  0  0
  4  6  2  0  0  0  0
  6  7  1  0  0  0  0
  7  8  1  0  0  0  0
  4  9  1  0  0  0  0
  9 10  1  0  0  0  0
 10 11  1  0  0  0  0
 11 12  1  0  0  0  0
 12 13  2  0  0  0  0
 12 14  2  0  0  0  0
 14 15  1  0  0  0  0
 15 16  1  0  0  0  0
 12 17  2  0  0  0  0
 17 18  1  0  0  0  0
 18 19  1  0  0  0  0
  1 20  1  0  0  0  0
  1 21  1  0  0  0  0
  1 22  1  0  0  0  0
  2 23  1  0  0  0  0
  2 24  1  0  0  0  0
  7 25  1  0  0  0  0
  7 26  1  0  0  0  0
  8 27  1  0  0  0  0
  8 28  1  0  0  0  0
  8 29  1  0  0  0  0
 10 30  1  0  0  0  0
 10 31  1  0  0  0  0
 15 32  1  0  0  0  0
 15 33  1  0  0  0  0
 16 34  1  0  0  0  0
 16 35  1  0  0  0  0
 16 36  1  0  0  0  0
 18 37  1  0  0  0  0
 18 38  1  0  0  0  0
 19 39  1  0  0  0  0
 19 40  1  0  0  0  0
 19 41  1  0  0  0  0
M  END
