 xtb: 6.7.1 (edcfbbe)
          04092507313D

 38 37  0     0  0            999 V2000
    4.0076   -3.2115    0.8891 C   0  0  0  0  0  0  0  0  0  0  0  0
    2.8606   -2.2388    1.0727 C   0  0  0  0  0  0  0  0  0  0  0  0
    2.4890   -1.7388   -0.2263 O   0  0  0  0  0  0  0  0  0  0  0  0
    1.6515   -0.7399   -0.2887 C   0  0  0  0  0  0  0  0  0  0  0  0
    1.2024   -0.1458    0.6802 O   0  0  0  0  0  0  0  0  0  0  0  0
    1.3255   -0.3315   -1.7074 C   0  0  0  0  0  0  0  0  0  0  0  0
    0.4582    0.9187   -1.6730 C   0  0  0  0  0  0  0  0  0  0  0  0
    0.4477    1.3984   -2.6563 H   0  0  0  0  0  0  0  0  0  0  0  0
    1.0361    1.9170   -0.6751 C   0  0  0  0  0  0  0  0  0  0  0  0
    2.2236    2.1575   -0.6411 O   0  0  0  0  0  0  0  0  0  0  0  0
    0.1233    2.5111    0.0581 O   0  0  0  0  0  0  0  0  0  0  0  0
    0.5625    3.5303    0.9793 C   0  0  0  0  0  0  0  0  0  0  0  0
    0.6954    4.8723    0.2781 C   0  0  0  0  0  0  0  0  0  0  0  0
   -1.3096    0.5906   -1.3742 S   0  0  0  0  0  0  0  0  0  0  0  0
   -1.5243   -0.7796    0.2369 P   0  0  0  0  0  0  0  0  0  0  0  0
   -0.6877   -2.5508    0.1394 S   0  0  0  0  0  0  0  0  0  0  0  0
   -1.3495   -0.0473    1.6253 O   0  0  0  0  0  0  0  0  0  0  0  0
   -2.1385    1.1042    1.9822 C   0  0  0  0  0  0  0  0  0  0  0  0
   -3.1230   -0.8884    0.1888 O   0  0  0  0  0  0  0  0  0  0  0  0
   -3.7977   -1.6108   -0.8463 C   0  0  0  0  0  0  0  0  0  0  0  0
    4.8586   -2.7051    0.4437 H   0  0  0  0  0  0  0  0  0  0  0  0
    4.2925   -3.6136    1.8554 H   0  0  0  0  0  0  0  0  0  0  0  0
    3.6981   -4.0234    0.2383 H   0  0  0  0  0  0  0  0  0  0  0  0
    3.1343   -1.3877    1.7047 H   0  0  0  0  0  0  0  0  0  0  0  0
    1.9795   -2.7249    1.5053 H   0  0  0  0  0  0  0  0  0  0  0  0
    0.8304   -1.1580   -2.2198 H   0  0  0  0  0  0  0  0  0  0  0  0
    2.2670   -0.1226   -2.2184 H   0  0  0  0  0  0  0  0  0  0  0  0
   -0.2094    3.5570    1.7482 H   0  0  0  0  0  0  0  0  0  0  0  0
    1.5162    3.2140    1.4108 H   0  0  0  0  0  0  0  0  0  0  0  0
   -0.2420    5.1366   -0.2034 H   0  0  0  0  0  0  0  0  0  0  0  0
    0.9503    5.6317    1.0097 H   0  0  0  0  0  0  0  0  0  0  0  0
    1.4813    4.8268   -0.4722 H   0  0  0  0  0  0  0  0  0  0  0  0
   -1.6924    1.4752    2.9015 H   0  0  0  0  0  0  0  0  0  0  0  0
   -3.1717    0.8026    2.1444 H   0  0  0  0  0  0  0  0  0  0  0  0
   -2.0851    1.8530    1.1922 H   0  0  0  0  0  0  0  0  0  0  0  0
   -3.3012   -2.5669   -1.0200 H   0  0  0  0  0  0  0  0  0  0  0  0
   -3.8059   -1.0216   -1.7622 H   0  0  0  0  0  0  0  0  0  0  0  0
   -4.8091   -1.7698   -0.4809 H   0  0  0  0  0  0  0  0  0  0  0  0
  1  2  1  0  0  0  0
  2  3  1  0  0  0  0
  3  4  4  0  0  0  0
  4  5  2  0  0  0  0
  4  6  1  0  0  0  0
  6  7  1  0  0  0  0
  7  8  1  0  0  0  0
  7  9  1  0  0  0  0
  9 10  2  0  0  0  0
  9 11  1  0  0  0  0
 11 12  1  0  0  0  0
 12 13  1  0  0  0  0
  7 14  1  0  0  0  0
 14 15  1  0  0  0  0
 15 16  2  0  0  0  0
 15 17  2  0  0  0  0
 17 18  1  0  0  0  0
 15 19  1  0  0  0  0
 19 20  1  0  0  0  0
  1 21  1  0  0  0  0
  1 22  1  0  0  0  0
  1 23  1  0  0  0  0
  2 24  1  0  0  0  0
  2 25  1  0  0  0  0
  6 26  1  0  0  0  0
  6 27  1  0  0  0  0
 12 28  1  0  0  0  0
 12 29  1  0  0  0  0
 13 30  1  0  0  0  0
 13 31  1  0  0  0  0
 13 32  1  0  0  0  0
 18 33  1  0  0  0  0
 18 34  1  0  0  0  0
 18 35  1  0  0  0  0
 20 36  1  0  0  0  0
 20 37  1  0  0  0  0
 20 38  1  0  0  0  0
M  END
