 xtb: 6.7.1 (edcfbbe)
          04092505203D

 41 40  0     0  0            999 V2000
    5.4641   -0.1763   -0.8214 C   0  0  0  0  0  0  0  0  0  0  0  0
    4.4553   -0.9590   -0.0033 C   0  0  0  0  0  0  0  0  0  0  0  0
    3.4456   -0.0845    0.5382 O   0  0  0  0  0  0  0  0  0  0  0  0
    2.0378    0.1311   -0.1715 P   0  0  0  0  0  0  0  0  0  0  0  0
    2.0940    0.5916   -2.0796 S   0  0  0  0  0  0  0  0  0  0  0  0
    1.3723    1.1666    0.8213 O   0  0  0  0  0  0  0  0  0  0  0  0
    1.4817    2.5905    0.6334 C   0  0  0  0  0  0  0  0  0  0  0  0
    2.9058    3.0722    0.8035 C   0  0  0  0  0  0  0  0  0  0  0  0
    1.0612   -1.6649    0.3219 S   0  0  0  0  0  0  0  0  0  0  0  0
   -0.1512   -1.8083   -1.0387 C   0  0  0  0  0  0  0  0  0  0  0  0
   -1.8527   -1.8800   -0.4450 S   0  0  0  0  0  0  0  0  0  0  0  0
   -2.0378    0.1475    0.1665 P   0  0  0  0  0  0  0  0  0  0  0  0
   -1.2975    1.4564   -1.0902 S   0  0  0  0  0  0  0  0  0  0  0  0
   -1.3872    0.2736    1.5939 O   0  0  0  0  0  0  0  0  0  0  0  0
   -1.4619   -0.6897    2.6767 C   0  0  0  0  0  0  0  0  0  0  0  0
   -2.8782   -1.1023    3.0100 C   0  0  0  0  0  0  0  0  0  0  0  0
   -3.5831    0.3473    0.4663 O   0  0  0  0  0  0  0  0  0  0  0  0
   -4.5563    0.5838   -0.5663 C   0  0  0  0  0  0  0  0  0  0  0  0
   -5.1462   -0.7139   -1.0825 C   0  0  0  0  0  0  0  0  0  0  0  0
    6.2415   -0.8490   -1.1686 H   0  0  0  0  0  0  0  0  0  0  0  0
    4.9778    0.2770   -1.6826 H   0  0  0  0  0  0  0  0  0  0  0  0
    5.9103    0.6072   -0.2152 H   0  0  0  0  0  0  0  0  0  0  0  0
    4.9204   -1.4179    0.8710 H   0  0  0  0  0  0  0  0  0  0  0  0
    3.9767   -1.7328   -0.6105 H   0  0  0  0  0  0  0  0  0  0  0  0
    1.0978    2.8391   -0.3621 H   0  0  0  0  0  0  0  0  0  0  0  0
    0.8121    3.0029    1.3899 H   0  0  0  0  0  0  0  0  0  0  0  0
    2.9264    4.1563    0.7519 H   0  0  0  0  0  0  0  0  0  0  0  0
    3.3003    2.7433    1.7613 H   0  0  0  0  0  0  0  0  0  0  0  0
    3.5277    2.6667    0.0062 H   0  0  0  0  0  0  0  0  0  0  0  0
    0.0314   -2.7477   -1.5538 H   0  0  0  0  0  0  0  0  0  0  0  0
   -0.0222   -0.9558   -1.7119 H   0  0  0  0  0  0  0  0  0  0  0  0
   -0.8548   -1.5572    2.4015 H   0  0  0  0  0  0  0  0  0  0  0  0
   -0.9871   -0.1612    3.5047 H   0  0  0  0  0  0  0  0  0  0  0  0
   -3.3116   -1.6661    2.1866 H   0  0  0  0  0  0  0  0  0  0  0  0
   -2.8599   -1.7294    3.8962 H   0  0  0  0  0  0  0  0  0  0  0  0
   -3.4924   -0.2262    3.2005 H   0  0  0  0  0  0  0  0  0  0  0  0
   -5.3171    1.1991   -0.0826 H   0  0  0  0  0  0  0  0  0  0  0  0
   -4.0840    1.1562   -1.3719 H   0  0  0  0  0  0  0  0  0  0  0  0
   -5.5588   -1.2895   -0.2589 H   0  0  0  0  0  0  0  0  0  0  0  0
   -5.9364   -0.4851   -1.7904 H   0  0  0  0  0  0  0  0  0  0  0  0
   -4.3856   -1.3102   -1.5808 H   0  0  0  0  0  0  0  0  0  0  0  0
  1  2  1  0  0  0  0
  2  3  1  0  0  0  0
  3  4  2  0  0  0  0
  4  5  2  0  0  0  0
  4  6  2  0  0  0  0
  6  7  1  0  0  0  0
  7  8  1  0  0  0  0
  4  9  1  0  0  0  0
  9 10  1  0  0  0  0
 10 11  1  0  0  0  0
 11 12  1  0  0  0  0
 12 13  2  0  0  0  0
 12 14  2  0  0  0  0
 14 15  1  0  0  0  0
 15 16  1  0  0  0  0
 12 17  2  0  0  0  0
 17 18  1  0  0  0  0
 18 19  1  0  0  0  0
  1 20  1  0  0  0  0
  1 21  1  0  0  0  0
  1 22  1  0  0  0  0
  2 23  1  0  0  0  0
  2 24  1  0  0  0  0
  7 25  1  0  0  0  0
  7 26  1  0  0  0  0
  8 27  1  0  0  0  0
  8 28  1  0  0  0  0
  8 29  1  0  0  0  0
 10 30  1  0  0  0  0
 10 31  1  0  0  0  0
 15 32  1  0  0  0  0
 15 33  1  0  0  0  0
 16 34  1  0  0  0  0
 16 35  1  0  0  0  0
 16 36  1  0  0  0  0
 18 37  1  0  0  0  0
 18 38  1  0  0  0  0
 19 39  1  0  0  0  0
 19 40  1  0  0  0  0
 19 41  1  0  0  0  0
M  END
