 xtb: 6.7.1 (edcfbbe)
          04092505213D

 41 40  0     0  0            999 V2000
    2.1256    2.5328   -0.6426 C   0  0  0  0  0  0  0  0  0  0  0  0
    1.9707    1.2875   -1.4938 C   0  0  0  0  0  0  0  0  0  0  0  0
    2.7305    0.1794   -0.9887 O   0  0  0  0  0  0  0  0  0  0  0  0
    2.4332   -0.6213    0.3445 P   0  0  0  0  0  0  0  0  0  0  0  0
    2.8442    0.2375    2.0640 S   0  0  0  0  0  0  0  0  0  0  0  0
    3.3640   -1.8455   -0.0205 O   0  0  0  0  0  0  0  0  0  0  0  0
    3.8742   -2.7364    0.9870 C   0  0  0  0  0  0  0  0  0  0  0  0
    2.7895   -3.6264    1.5612 C   0  0  0  0  0  0  0  0  0  0  0  0
    0.4442   -1.3671    0.1480 S   0  0  0  0  0  0  0  0  0  0  0  0
   -0.3455   -0.4579    1.5023 C   0  0  0  0  0  0  0  0  0  0  0  0
   -0.9276    1.2007    1.0410 S   0  0  0  0  0  0  0  0  0  0  0  0
   -2.2913    0.6766   -0.4913 P   0  0  0  0  0  0  0  0  0  0  0  0
   -1.6394    0.3216   -2.3130 S   0  0  0  0  0  0  0  0  0  0  0  0
   -3.3721    1.8429   -0.4360 O   0  0  0  0  0  0  0  0  0  0  0  0
   -3.2404    3.0474   -1.2085 C   0  0  0  0  0  0  0  0  0  0  0  0
   -2.0632    3.8830   -0.7486 C   0  0  0  0  0  0  0  0  0  0  0  0
   -3.0701   -0.5011    0.2191 O   0  0  0  0  0  0  0  0  0  0  0  0
   -3.6247   -1.6403   -0.4762 C   0  0  0  0  0  0  0  0  0  0  0  0
   -2.9981   -2.9131    0.0575 C   0  0  0  0  0  0  0  0  0  0  0  0
    1.6480    3.3692   -1.1434 H   0  0  0  0  0  0  0  0  0  0  0  0
    1.6629    2.3945    0.3333 H   0  0  0  0  0  0  0  0  0  0  0  0
    3.1800    2.7556   -0.4997 H   0  0  0  0  0  0  0  0  0  0  0  0
    2.3758    1.4404   -2.4960 H   0  0  0  0  0  0  0  0  0  0  0  0
    0.9190    0.9933   -1.5819 H   0  0  0  0  0  0  0  0  0  0  0  0
    4.6347   -3.3160    0.4621 H   0  0  0  0  0  0  0  0  0  0  0  0
    4.3423   -2.1399    1.7771 H   0  0  0  0  0  0  0  0  0  0  0  0
    2.2523   -4.1287    0.7606 H   0  0  0  0  0  0  0  0  0  0  0  0
    3.2415   -4.3672    2.2128 H   0  0  0  0  0  0  0  0  0  0  0  0
    2.0855   -3.0299    2.1396 H   0  0  0  0  0  0  0  0  0  0  0  0
    0.3835   -0.2981    2.3001 H   0  0  0  0  0  0  0  0  0  0  0  0
   -1.1884   -1.0529    1.8418 H   0  0  0  0  0  0  0  0  0  0  0  0
   -3.1287    2.7715   -2.2624 H   0  0  0  0  0  0  0  0  0  0  0  0
   -4.1891    3.5637   -1.0575 H   0  0  0  0  0  0  0  0  0  0  0  0
   -1.1347    3.3432   -0.9362 H   0  0  0  0  0  0  0  0  0  0  0  0
   -2.0454    4.8188   -1.2977 H   0  0  0  0  0  0  0  0  0  0  0  0
   -2.1366    4.0880    0.3164 H   0  0  0  0  0  0  0  0  0  0  0  0
   -4.6995   -1.6122   -0.2896 H   0  0  0  0  0  0  0  0  0  0  0  0
   -3.4354   -1.5306   -1.5490 H   0  0  0  0  0  0  0  0  0  0  0  0
   -3.4466   -3.7650   -0.4431 H   0  0  0  0  0  0  0  0  0  0  0  0
   -1.9263   -2.9121   -0.1341 H   0  0  0  0  0  0  0  0  0  0  0  0
   -3.1688   -2.9970    1.1271 H   0  0  0  0  0  0  0  0  0  0  0  0
  1  2  1  0  0  0  0
  2  3  1  0  0  0  0
  3  4  2  0  0  0  0
  4  5  2  0  0  0  0
  4  6  2  0  0  0  0
  6  7  1  0  0  0  0
  7  8  1  0  0  0  0
  4  9  1  0  0  0  0
  9 10  1  0  0  0  0
 10 11  1  0  0  0  0
 11 12  1  0  0  0  0
 12 13  2  0  0  0  0
 12 14  2  0  0  0  0
 14 15  1  0  0  0  0
 15 16  1  0  0  0  0
 12 17  2  0  0  0  0
 17 18  1  0  0  0  0
 18 19  1  0  0  0  0
  1 20  1  0  0  0  0
  1 21  1  0  0  0  0
  1 22  1  0  0  0  0
  2 23  1  0  0  0  0
  2 24  1  0  0  0  0
  7 25  1  0  0  0  0
  7 26  1  0  0  0  0
  8 27  1  0  0  0  0
  8 28  1  0  0  0  0
  8 29  1  0  0  0  0
 10 30  1  0  0  0  0
 10 31  1  0  0  0  0
 15 32  1  0  0  0  0
 15 33  1  0  0  0  0
 16 34  1  0  0  0  0
 16 35  1  0  0  0  0
 16 36  1  0  0  0  0
 18 37  1  0  0  0  0
 18 38  1  0  0  0  0
 19 39  1  0  0  0  0
 19 40  1  0  0  0  0
 19 41  1  0  0  0  0
M  END
