41
 xtb: 6.7.1 (edcfbbe)
C            5.19851064393065       -2.13890915880421       -1.97570665309243
C            4.58843106583885       -0.90852925538578       -1.35724689094156
O            3.44453982135557       -1.35298217716162       -0.54667257385874
P            2.46186451946960       -0.27217056135197        0.13609656441718
S            3.29279965296495        1.24916141112617        1.02253191120164
O            1.54073387692494       -1.23093324122385        1.03381306081762
C            1.85122949762054       -1.51041522769567        2.44492122473055
C            3.04567041954329       -2.42076020590300        2.58853594451914
S            1.17974015125928        0.17133336242583       -1.49109613234339
C            0.43974695846890        1.75380966823051       -0.93195072183792
S           -0.67269391561779        1.68615344951118        0.52403340161430
P           -2.32941182353088        0.61296858511860       -0.27149529999191
S           -2.72726374616087        0.96439877341366       -2.14082027944509
O           -3.44226870902970        0.96194791740376        0.83464462034710
C           -4.07578657670313        2.29285187228951        0.87692787857286
C           -5.54170440879256        2.14602480849995        0.56251496147622
O           -2.10224810626398       -0.95022735506802       -0.00297487983651
C           -1.87687218145902       -1.47868955196466        1.35575408067657
C           -1.46005843620786       -2.91822929391254        1.20798926721094
H            5.53135399412486       -2.83863369339708       -1.20390531523167
H            4.48465679915205       -2.64301639770945       -2.63313522190490
H            6.06723749693022       -1.84161869768247       -2.57093724756683
H            4.22861931363016       -0.20881465706475       -2.11913583736256
H            5.28954418658616       -0.39162556471908       -0.69556481322717
H            1.99423027503469       -0.55523118709086        2.95938594962909
H            0.93841908506331       -1.98208206167109        2.81462993908112
H            3.96757779771950       -1.93422215437503        2.25617551589227
H            3.16056772545929       -2.67999438195895        3.64618023179998
H            2.90353397754602       -3.34429727684202        2.02004901476642
H           -0.11152929367501        2.14109919021028       -1.79387063497614
H            1.23691612671829        2.45214934774939       -0.66144839351141
H           -3.90585205176054        2.66231953577916        1.89139230243344
H           -3.57377278307095        2.95915081684554        0.16809445923217
H           -5.68865560639139        1.78102494250003       -0.45820693078319
H           -6.02426586402579        1.45752577730415        1.26236052732388
H           -6.02383697157808        3.12474231233630        0.65393395797716
H           -1.10012201803102       -0.87630105732234        1.83879995528836
H           -2.81242797447037       -1.38073298486111        1.91286964932990
H           -0.53180051066806       -3.00310553170577        0.63614289230634
H           -1.29550339526424       -3.34179944471291        2.20388590108655
H           -2.24196812913820       -3.50062229727488        0.71159102157785
