41
 xtb: 6.7.1 (edcfbbe)
C            3.33954256485462       -0.16510896561854       -2.64006704138386
C            2.05804874425781        0.39237493537646       -2.07121310411939
O            1.50548079564675       -0.48354333600533       -1.02622174496948
P            2.14969752613249       -0.56079116241064        0.43999933783890
S            2.97180015193376        1.06114224500169        1.13736006824858
O            3.09071496355049       -1.85888899867983        0.28153685032086
C            4.05110061982632       -2.23301638169135        1.33309288136469
C            5.45209485356387       -2.01125023718121        0.82231481619795
S            0.58928896332857       -1.39636359119113        1.60216073220782
C           -0.31800344911728        0.10337873202031        2.18731691254601
S           -2.08828329970105        0.13261821966228        1.72125927479722
P           -1.99598650502066        0.94414212209420       -0.24658215033250
S           -0.82113621351196        2.47418885242297       -0.46601949837429
O           -3.56883892891874        1.13195028497516       -0.53231284505405
C           -4.34146502471134        2.20352766315585        0.11668556212189
C           -5.59608724367607        2.40201839702244       -0.69240405200135
O           -1.61945889579837       -0.23013477311732       -1.26551742114694
C           -2.38658363225320       -1.48958095001566       -1.33650207394609
C           -3.20354877733494       -1.51026794965791       -2.60319532490860
H            3.65593501325364        0.46693174591124       -3.47658089453960
H            4.14206821194134       -0.16956516614553       -1.89586138421266
H            3.19335188300621       -1.18305024729308       -3.01271964794099
H            1.26232649095524        0.42965675196894       -2.81788221682568
H            2.19399076795534        1.39029100430721       -1.64450792932622
H            3.85177236974629       -1.64883166472353        2.23707615245823
H            3.85176535831905       -3.28699335930474        1.54168925603695
H            6.16636954880839       -2.35216085968522        1.57884110412181
H            5.62550829841221       -2.57897990678392       -0.09663200267787
H            5.63312205874925       -0.95037908921358        0.62715348088055
H            0.18561857148859        1.00753821769173        1.82819455544525
H           -0.30253399212230        0.09479045996981        3.27954980856919
H           -4.56282522459628        1.88530754852494        1.14006174034026
H           -3.72688143068659        3.10901989547691        0.14217480658694
H           -6.20432521382033        3.17691643872235       -0.21578367923760
H           -5.35779905596487        2.72519529205235       -1.70954771100294
H           -6.18412941811510        1.48073872416533       -0.73655007111665
H           -1.62999165949046       -2.27763209766107       -1.32396639618795
H           -3.01148605700188       -1.58908284873602       -0.44415962541976
H           -3.71956753573881       -2.47361479693790       -2.67371984426607
H           -3.95424163964175       -0.71523179454478       -2.60223834581022
H           -2.56332145138482       -1.39808473228127       -3.48268284394936
