 xtb: 6.7.1 (edcfbbe)
          04092505213D

 41 40  0     0  0            999 V2000
    4.5914    2.0176   -0.0883 C   0  0  0  0  0  0  0  0  0  0  0  0
    4.0342    1.2398   -1.2625 C   0  0  0  0  0  0  0  0  0  0  0  0
    3.3406    0.0414   -0.8649 O   0  0  0  0  0  0  0  0  0  0  0  0
    2.1880   -0.0422    0.2229 P   0  0  0  0  0  0  0  0  0  0  0  0
    2.7255   -0.0517    2.1125 S   0  0  0  0  0  0  0  0  0  0  0  0
    1.4347   -1.3577   -0.2416 O   0  0  0  0  0  0  0  0  0  0  0  0
    1.6475   -2.6366    0.3778 C   0  0  0  0  0  0  0  0  0  0  0  0
    2.9965   -3.2086   -0.0021 C   0  0  0  0  0  0  0  0  0  0  0  0
    0.8364    1.4602   -0.3684 S   0  0  0  0  0  0  0  0  0  0  0  0
   -0.1530    1.4628    1.1507 C   0  0  0  0  0  0  0  0  0  0  0  0
   -1.0148   -0.1061    1.4595 S   0  0  0  0  0  0  0  0  0  0  0  0
   -2.1164   -0.2909   -0.3513 P   0  0  0  0  0  0  0  0  0  0  0  0
   -1.3067   -0.9808   -1.9885 S   0  0  0  0  0  0  0  0  0  0  0  0
   -2.7735    1.1604   -0.4566 O   0  0  0  0  0  0  0  0  0  0  0  0
   -2.8371    1.9493   -1.6643 C   0  0  0  0  0  0  0  0  0  0  0  0
   -2.1155    3.2676   -1.4689 C   0  0  0  0  0  0  0  0  0  0  0  0
   -3.2799   -1.2629    0.1042 O   0  0  0  0  0  0  0  0  0  0  0  0
   -4.1825   -0.9637    1.2010 C   0  0  0  0  0  0  0  0  0  0  0  0
   -5.4999   -1.6568    0.9196 C   0  0  0  0  0  0  0  0  0  0  0  0
    5.1719    2.8570   -0.4573 H   0  0  0  0  0  0  0  0  0  0  0  0
    3.7801    2.3928    0.5343 H   0  0  0  0  0  0  0  0  0  0  0  0
    5.2273    1.3805    0.5220 H   0  0  0  0  0  0  0  0  0  0  0  0
    4.8298    0.8699   -1.9118 H   0  0  0  0  0  0  0  0  0  0  0  0
    3.3406    1.8553   -1.8427 H   0  0  0  0  0  0  0  0  0  0  0  0
    1.5639   -2.5175    1.4640 H   0  0  0  0  0  0  0  0  0  0  0  0
    0.8228   -3.2494    0.0089 H   0  0  0  0  0  0  0  0  0  0  0  0
    3.1083   -4.1958    0.4349 H   0  0  0  0  0  0  0  0  0  0  0  0
    3.0822   -3.2751   -1.0835 H   0  0  0  0  0  0  0  0  0  0  0  0
    3.7859   -2.5580    0.3738 H   0  0  0  0  0  0  0  0  0  0  0  0
   -0.8772    2.2681    1.0586 H   0  0  0  0  0  0  0  0  0  0  0  0
    0.5019    1.6096    2.0103 H   0  0  0  0  0  0  0  0  0  0  0  0
   -2.3987    1.3730   -2.4857 H   0  0  0  0  0  0  0  0  0  0  0  0
   -3.9001    2.1061   -1.8577 H   0  0  0  0  0  0  0  0  0  0  0  0
   -2.5165    3.7908   -0.6052 H   0  0  0  0  0  0  0  0  0  0  0  0
   -1.0488    3.1022   -1.3289 H   0  0  0  0  0  0  0  0  0  0  0  0
   -2.2617    3.8788   -2.3535 H   0  0  0  0  0  0  0  0  0  0  0  0
   -3.7208   -1.3372    2.1178 H   0  0  0  0  0  0  0  0  0  0  0  0
   -4.3060    0.1192    1.2705 H   0  0  0  0  0  0  0  0  0  0  0  0
   -5.9372   -1.2754    0.0011 H   0  0  0  0  0  0  0  0  0  0  0  0
   -5.3403   -2.7257    0.8111 H   0  0  0  0  0  0  0  0  0  0  0  0
   -6.1804   -1.4761    1.7454 H   0  0  0  0  0  0  0  0  0  0  0  0
  1  2  1  0  0  0  0
  2  3  1  0  0  0  0
  3  4  2  0  0  0  0
  4  5  2  0  0  0  0
  4  6  2  0  0  0  0
  6  7  1  0  0  0  0
  7  8  1  0  0  0  0
  4  9  1  0  0  0  0
  9 10  1  0  0  0  0
 10 11  1  0  0  0  0
 11 12  1  0  0  0  0
 12 13  2  0  0  0  0
 12 14  2  0  0  0  0
 14 15  1  0  0  0  0
 15 16  1  0  0  0  0
 12 17  2  0  0  0  0
 17 18  1  0  0  0  0
 18 19  1  0  0  0  0
  1 20  1  0  0  0  0
  1 21  1  0  0  0  0
  1 22  1  0  0  0  0
  2 23  1  0  0  0  0
  2 24  1  0  0  0  0
  7 25  1  0  0  0  0
  7 26  1  0  0  0  0
  8 27  1  0  0  0  0
  8 28  1  0  0  0  0
  8 29  1  0  0  0  0
 10 30  1  0  0  0  0
 10 31  1  0  0  0  0
 15 32  1  0  0  0  0
 15 33  1  0  0  0  0
 16 34  1  0  0  0  0
 16 35  1  0  0  0  0
 16 36  1  0  0  0  0
 18 37  1  0  0  0  0
 18 38  1  0  0  0  0
 19 39  1  0  0  0  0
 19 40  1  0  0  0  0
 19 41  1  0  0  0  0
M  END
