 xtb: 6.7.1 (edcfbbe)
          04032520193D

 20 20  0     0  0            999 V2000
    0.6058    1.7001   -0.0338 C   0  0  0  0  0  0  0  0  0  0  0  0
    1.3992    0.4067   -0.2467 C   0  0  0  0  0  0  0  0  0  0  0  0
    1.6218    0.2825   -1.3177 H   0  0  0  0  0  0  0  0  0  0  0  0
    0.5532   -0.7993    0.1946 C   0  0  0  0  0  0  0  0  0  0  0  0
    0.3853   -0.7506    1.2797 H   0  0  0  0  0  0  0  0  0  0  0  0
   -0.8098   -0.7635   -0.5026 C   0  0  0  0  0  0  0  0  0  0  0  0
   -0.6363   -0.8970   -1.5808 H   0  0  0  0  0  0  0  0  0  0  0  0
   -1.4747    0.6162   -0.2874 C   0  0  0  0  0  0  0  0  0  0  0  0
   -2.3593    0.6971   -0.9367 H   0  0  0  0  0  0  0  0  0  0  0  0
   -0.6343    1.6586   -0.7234 O   0  0  0  0  0  0  0  0  0  0  0  0
   -1.8139    0.7423    1.0534 O   0  0  0  0  0  0  0  0  0  0  0  0
   -1.5967   -1.7995    0.0154 O   0  0  0  0  0  0  0  0  0  0  0  0
    1.1917   -2.0024   -0.1541 O   0  0  0  0  0  0  0  0  0  0  0  0
    2.5817    0.3797    0.5168 O   0  0  0  0  0  0  0  0  0  0  0  0
    1.1288    2.5643   -0.4440 H   0  0  0  0  0  0  0  0  0  0  0  0
    0.4393    1.8376    1.0415 H   0  0  0  0  0  0  0  0  0  0  0  0
   -2.3866    1.5138    1.1853 H   0  0  0  0  0  0  0  0  0  0  0  0
   -2.4064   -1.8954   -0.5063 H   0  0  0  0  0  0  0  0  0  0  0  0
    2.0534   -2.0223    0.2891 H   0  0  0  0  0  0  0  0  0  0  0  0
    3.1889    1.0682    0.2110 H   0  0  0  0  0  0  0  0  0  0  0  0
  1  2  1  0  0  0  0
  2  3  1  0  0  0  0
  2  4  1  0  0  0  0
  4  5  1  0  0  0  0
  4  6  1  0  0  0  0
  6  7  1  0  0  0  0
  6  8  1  0  0  0  0
  8  9  1  0  0  0  0
  1 10  1  0  0  0  0
  8 10  1  0  0  0  0
  8 11  1  0  0  0  0
  6 12  1  0  0  0  0
  4 13  1  0  0  0  0
  2 14  1  0  0  0  0
  1 15  1  0  0  0  0
  1 16  1  0  0  0  0
 11 17  1  0  0  0  0
 12 18  1  0  0  0  0
 13 19  1  0  0  0  0
 14 20  1  0  0  0  0
M  END
