 xtb: 6.7.1 (edcfbbe)
          04092505213D

 41 40  0     0  0            999 V2000
    1.0132   -1.2367    3.4710 C   0  0  0  0  0  0  0  0  0  0  0  0
    1.2823   -1.7472    2.0710 C   0  0  0  0  0  0  0  0  0  0  0  0
    2.1089   -0.7712    1.4021 O   0  0  0  0  0  0  0  0  0  0  0  0
    2.4809   -0.9560   -0.1262 P   0  0  0  0  0  0  0  0  0  0  0  0
    3.1635   -2.7129   -0.6536 S   0  0  0  0  0  0  0  0  0  0  0  0
    3.4920    0.2634   -0.2030 O   0  0  0  0  0  0  0  0  0  0  0  0
    4.5047    0.3274   -1.2224 C   0  0  0  0  0  0  0  0  0  0  0  0
    3.9149    0.6186   -2.5883 C   0  0  0  0  0  0  0  0  0  0  0  0
    0.7366   -0.3168   -1.1776 S   0  0  0  0  0  0  0  0  0  0  0  0
    0.4717    1.2309   -0.2540 C   0  0  0  0  0  0  0  0  0  0  0  0
   -0.7423    1.0569    1.0729 S   0  0  0  0  0  0  0  0  0  0  0  0
   -2.4416    0.8805   -0.2022 P   0  0  0  0  0  0  0  0  0  0  0  0
   -2.4211    1.9892   -1.8115 S   0  0  0  0  0  0  0  0  0  0  0  0
   -3.6758    1.0824    0.7809 O   0  0  0  0  0  0  0  0  0  0  0  0
   -4.2367    2.3757    1.0745 C   0  0  0  0  0  0  0  0  0  0  0  0
   -3.2619    3.2765    1.8044 C   0  0  0  0  0  0  0  0  0  0  0  0
   -2.5518   -0.6554   -0.5444 O   0  0  0  0  0  0  0  0  0  0  0  0
   -2.6655   -1.6841    0.4711 C   0  0  0  0  0  0  0  0  0  0  0  0
   -2.0624   -2.9589   -0.0825 C   0  0  0  0  0  0  0  0  0  0  0  0
    0.4806   -0.2904    3.4225 H   0  0  0  0  0  0  0  0  0  0  0  0
    0.4133   -1.9647    4.0066 H   0  0  0  0  0  0  0  0  0  0  0  0
    1.9519   -1.0868    3.9957 H   0  0  0  0  0  0  0  0  0  0  0  0
    0.3521   -1.8711    1.5080 H   0  0  0  0  0  0  0  0  0  0  0  0
    1.8165   -2.7021    2.0786 H   0  0  0  0  0  0  0  0  0  0  0  0
    5.1651    1.1288   -0.8881 H   0  0  0  0  0  0  0  0  0  0  0  0
    5.0486   -0.6225   -1.2347 H   0  0  0  0  0  0  0  0  0  0  0  0
    3.2757   -0.2073   -2.9006 H   0  0  0  0  0  0  0  0  0  0  0  0
    3.3236    1.5308   -2.5639 H   0  0  0  0  0  0  0  0  0  0  0  0
    4.7177    0.7323   -3.3097 H   0  0  0  0  0  0  0  0  0  0  0  0
    0.1017    1.9636   -0.9719 H   0  0  0  0  0  0  0  0  0  0  0  0
    1.4073    1.5473    0.2010 H   0  0  0  0  0  0  0  0  0  0  0  0
   -4.5531    2.8343    0.1329 H   0  0  0  0  0  0  0  0  0  0  0  0
   -5.1093    2.1446    1.6871 H   0  0  0  0  0  0  0  0  0  0  0  0
   -2.8608    2.7721    2.6798 H   0  0  0  0  0  0  0  0  0  0  0  0
   -2.4395    3.5475    1.1441 H   0  0  0  0  0  0  0  0  0  0  0  0
   -3.7752    4.1816    2.1128 H   0  0  0  0  0  0  0  0  0  0  0  0
   -2.1461   -1.3467    1.3738 H   0  0  0  0  0  0  0  0  0  0  0  0
   -3.7265   -1.8074    0.6950 H   0  0  0  0  0  0  0  0  0  0  0  0
   -2.1324   -3.7435    0.6640 H   0  0  0  0  0  0  0  0  0  0  0  0
   -2.5958   -3.2638   -0.9781 H   0  0  0  0  0  0  0  0  0  0  0  0
   -1.0177   -2.8060   -0.3470 H   0  0  0  0  0  0  0  0  0  0  0  0
  1  2  1  0  0  0  0
  2  3  1  0  0  0  0
  3  4  2  0  0  0  0
  4  5  2  0  0  0  0
  4  6  2  0  0  0  0
  6  7  1  0  0  0  0
  7  8  1  0  0  0  0
  4  9  1  0  0  0  0
  9 10  1  0  0  0  0
 10 11  1  0  0  0  0
 11 12  1  0  0  0  0
 12 13  2  0  0  0  0
 12 14  2  0  0  0  0
 14 15  1  0  0  0  0
 15 16  1  0  0  0  0
 12 17  2  0  0  0  0
 17 18  1  0  0  0  0
 18 19  1  0  0  0  0
  1 20  1  0  0  0  0
  1 21  1  0  0  0  0
  1 22  1  0  0  0  0
  2 23  1  0  0  0  0
  2 24  1  0  0  0  0
  7 25  1  0  0  0  0
  7 26  1  0  0  0  0
  8 27  1  0  0  0  0
  8 28  1  0  0  0  0
  8 29  1  0  0  0  0
 10 30  1  0  0  0  0
 10 31  1  0  0  0  0
 15 32  1  0  0  0  0
 15 33  1  0  0  0  0
 16 34  1  0  0  0  0
 16 35  1  0  0  0  0
 16 36  1  0  0  0  0
 18 37  1  0  0  0  0
 18 38  1  0  0  0  0
 19 39  1  0  0  0  0
 19 40  1  0  0  0  0
 19 41  1  0  0  0  0
M  END
