 xtb: 6.7.1 (edcfbbe)
          04092507313D

 38 37  0     0  0            999 V2000
    4.3779    0.9715   -1.3856 C   0  0  0  0  0  0  0  0  0  0  0  0
    4.1790   -0.3633   -2.0845 C   0  0  0  0  0  0  0  0  0  0  0  0
    2.8525   -0.8795   -1.8617 O   0  0  0  0  0  0  0  0  0  0  0  0
    2.6117   -1.5458   -0.7514 C   0  0  0  0  0  0  0  0  0  0  0  0
    3.4327   -1.7902    0.1029 O   0  0  0  0  0  0  0  0  0  0  0  0
    1.1608   -1.9953   -0.6873 C   0  0  0  0  0  0  0  0  0  0  0  0
    0.2495   -0.7718   -0.5728 C   0  0  0  0  0  0  0  0  0  0  0  0
    0.4026   -0.1013   -1.4216 H   0  0  0  0  0  0  0  0  0  0  0  0
    0.5428   -0.0373    0.7224 C   0  0  0  0  0  0  0  0  0  0  0  0
   -0.1615   -0.1268    1.7067 O   0  0  0  0  0  0  0  0  0  0  0  0
    1.6534    0.6473    0.6383 O   0  0  0  0  0  0  0  0  0  0  0  0
    2.1093    1.3447    1.8163 C   0  0  0  0  0  0  0  0  0  0  0  0
    2.7947    0.3932    2.7836 C   0  0  0  0  0  0  0  0  0  0  0  0
   -1.4942   -1.3030   -0.5375 S   0  0  0  0  0  0  0  0  0  0  0  0
   -2.3418    0.5370    0.0899 P   0  0  0  0  0  0  0  0  0  0  0  0
   -1.3020    2.1458   -0.3127 S   0  0  0  0  0  0  0  0  0  0  0  0
   -3.7661    0.4885   -0.6446 O   0  0  0  0  0  0  0  0  0  0  0  0
   -3.8730    0.5903   -2.0690 C   0  0  0  0  0  0  0  0  0  0  0  0
   -2.8213    0.4658    1.5900 O   0  0  0  0  0  0  0  0  0  0  0  0
   -3.4943   -0.6841    2.1407 C   0  0  0  0  0  0  0  0  0  0  0  0
    5.3454    1.3793   -1.6592 H   0  0  0  0  0  0  0  0  0  0  0  0
    3.5967    1.6683   -1.6779 H   0  0  0  0  0  0  0  0  0  0  0  0
    4.3408    0.8363   -0.3079 H   0  0  0  0  0  0  0  0  0  0  0  0
    4.9032   -1.0994   -1.7238 H   0  0  0  0  0  0  0  0  0  0  0  0
    4.2471   -0.2597   -3.1674 H   0  0  0  0  0  0  0  0  0  0  0  0
    1.0280   -2.6497    0.1749 H   0  0  0  0  0  0  0  0  0  0  0  0
    0.9119   -2.5345   -1.6017 H   0  0  0  0  0  0  0  0  0  0  0  0
    2.7983    2.0948    1.4286 H   0  0  0  0  0  0  0  0  0  0  0  0
    1.2469    1.8299    2.2827 H   0  0  0  0  0  0  0  0  0  0  0  0
    3.2698    0.9647    3.5736 H   0  0  0  0  0  0  0  0  0  0  0  0
    2.0671   -0.2848    3.2237 H   0  0  0  0  0  0  0  0  0  0  0  0
    3.5445   -0.1960    2.2598 H   0  0  0  0  0  0  0  0  0  0  0  0
   -4.9304    0.7382   -2.2723 H   0  0  0  0  0  0  0  0  0  0  0  0
   -3.5151   -0.3283   -2.5336 H   0  0  0  0  0  0  0  0  0  0  0  0
   -3.2931    1.4421   -2.4275 H   0  0  0  0  0  0  0  0  0  0  0  0
   -3.8421   -0.3643    3.1193 H   0  0  0  0  0  0  0  0  0  0  0  0
   -2.7840   -1.5050    2.2366 H   0  0  0  0  0  0  0  0  0  0  0  0
   -4.3293   -0.9721    1.5046 H   0  0  0  0  0  0  0  0  0  0  0  0
  1  2  1  0  0  0  0
  2  3  1  0  0  0  0
  3  4  1  0  0  0  0
  4  5  2  0  0  0  0
  4  6  1  0  0  0  0
  6  7  1  0  0  0  0
  7  8  1  0  0  0  0
  7  9  1  0  0  0  0
  9 10  2  0  0  0  0
  9 11  4  0  0  0  0
 11 12  1  0  0  0  0
 12 13  1  0  0  0  0
  7 14  1  0  0  0  0
 14 15  1  0  0  0  0
 15 16  2  0  0  0  0
 15 17  1  0  0  0  0
 17 18  1  0  0  0  0
 15 19  2  0  0  0  0
 19 20  1  0  0  0  0
  1 21  1  0  0  0  0
  1 22  1  0  0  0  0
  1 23  1  0  0  0  0
  2 24  1  0  0  0  0
  2 25  1  0  0  0  0
  6 26  1  0  0  0  0
  6 27  1  0  0  0  0
 12 28  1  0  0  0  0
 12 29  1  0  0  0  0
 13 30  1  0  0  0  0
 13 31  1  0  0  0  0
 13 32  1  0  0  0  0
 18 33  1  0  0  0  0
 18 34  1  0  0  0  0
 18 35  1  0  0  0  0
 20 36  1  0  0  0  0
 20 37  1  0  0  0  0
 20 38  1  0  0  0  0
M  END
