  20
 
 C          0.2298407875       -2.3590666504       -0.0928897050
 O         -0.1235792624       -1.1473974679       -0.7618899192
 C         -0.4313545550       -0.0535654864        0.0370264719
 C          0.7449778151        0.4115868992        0.9248645816
 Cl         2.2136025925        0.5127866361       -0.0577478153
 O         -0.7338574523        1.0182202733       -0.7913300591
 C         -1.7046391686        0.7605911479       -1.8119257211
 O         -1.5338473371       -0.4284340438        0.8311315875
 C         -2.0833237232        0.5790911192        1.6792040714
 H          0.2158233208       -3.1146893211       -0.8731701659
 H         -0.5030278218       -2.5950871630        0.6786423775
 H          1.2318122674       -2.2857907933        0.3356246480
 H          0.9177545433       -0.2975470959        1.7317910817
 H          0.5373517018        1.4089588406        1.3052284037
 H         -1.9664536915        1.7401796692       -2.2010494995
 H         -2.5773407342        0.2651356885       -1.3841163022
 H         -1.2711085731        0.1360338694       -2.5929622786
 H         -3.0842237844        0.2302615658        1.9191075488
 H         -2.1322785340        1.5356484986        1.1570270221
 H         -1.4920081612        0.6774457752        2.5911233158
          20
        -33.06899725
 C          0.3264622571       -2.3021375578       -0.4656291996
 O         -0.0131457268       -0.9963838443       -0.9352626356
 C         -0.3748398321       -0.0574917292        0.0222692700
 C          0.7488531234        0.2528289904        1.0368602216
 Cl         2.2631423016        0.5309925841        0.1635093805
 O         -0.6492226128        1.1396915303       -0.6239611164
 C         -1.5628630510        1.0580419386       -1.7236245923
 O         -1.5108326600       -0.5687800675        0.6820100930
 C         -2.1190390116        0.2765234440        1.6576123868
 H         -0.4304682558       -2.6649358917        0.2293367795
 H          1.3124448426       -2.2984079782        0.0037044441
 H          0.3447981806       -2.9176282835       -1.3605069792
 H          0.8915264983       -0.5844842756        1.7167485252
 H          0.5083584612        1.1680619302        1.5727072065
 H         -2.4537190878        0.4999414430       -1.4317577730
 H         -1.0842511573        0.5713845905       -2.5735783974
 H         -1.8099068714        2.0894082679       -1.9570647991
 H         -3.1265505768       -0.1125678792        1.7795028281
 H         -2.1532759997        1.3080078133        1.3041990389
 H         -1.5786346552        0.2200537685        2.6041332199
