 xtb: 6.7.1 (edcfbbe)
          04092514003D

 41 40  0     0  0            999 V2000
    0.7811   -1.8531    2.8378 C   0  0  0  0  0  0  0  0  0  0  0  0
    1.7673   -0.7166    2.6552 C   0  0  0  0  0  0  0  0  0  0  0  0
    1.4208    0.0497    1.4797 O   0  0  0  0  0  0  0  0  0  0  0  0
    2.2901    0.0019    0.1550 P   0  0  0  0  0  0  0  0  0  0  0  0
    3.0235   -1.7440   -0.3634 S   0  0  0  0  0  0  0  0  0  0  0  0
    3.3952    1.1017    0.4848 O   0  0  0  0  0  0  0  0  0  0  0  0
    4.6728    1.1791   -0.1727 C   0  0  0  0  0  0  0  0  0  0  0  0
    4.5646    1.7250   -1.5818 C   0  0  0  0  0  0  0  0  0  0  0  0
    0.9539    0.9557   -1.1620 S   0  0  0  0  0  0  0  0  0  0  0  0
    0.1264   -0.5249   -1.8129 C   0  0  0  0  0  0  0  0  0  0  0  0
   -0.8298   -1.4586   -0.5827 S   0  0  0  0  0  0  0  0  0  0  0  0
   -2.2949   -0.0046   -0.1706 P   0  0  0  0  0  0  0  0  0  0  0  0
   -2.8891    1.1607   -1.6347 S   0  0  0  0  0  0  0  0  0  0  0  0
   -1.6145    0.6999    1.0757 O   0  0  0  0  0  0  0  0  0  0  0  0
   -2.0764    1.9691    1.5902 C   0  0  0  0  0  0  0  0  0  0  0  0
   -1.0770    3.0569    1.2506 C   0  0  0  0  0  0  0  0  0  0  0  0
   -3.4732   -0.8029    0.5463 O   0  0  0  0  0  0  0  0  0  0  0  0
   -4.6483   -1.2799   -0.1335 C   0  0  0  0  0  0  0  0  0  0  0  0
   -4.3648   -2.4967   -0.9906 C   0  0  0  0  0  0  0  0  0  0  0  0
    0.8675   -2.5608    2.0156 H   0  0  0  0  0  0  0  0  0  0  0  0
    0.9888   -2.3637    3.7727 H   0  0  0  0  0  0  0  0  0  0  0  0
   -0.2337   -1.4635    2.8536 H   0  0  0  0  0  0  0  0  0  0  0  0
    2.7884   -1.0970    2.5534 H   0  0  0  0  0  0  0  0  0  0  0  0
    1.7230   -0.0094    3.4852 H   0  0  0  0  0  0  0  0  0  0  0  0
    5.2557    1.8419    0.4690 H   0  0  0  0  0  0  0  0  0  0  0  0
    5.1205    0.1800   -0.1800 H   0  0  0  0  0  0  0  0  0  0  0  0
    4.0276    1.0221   -2.2167 H   0  0  0  0  0  0  0  0  0  0  0  0
    4.0348    2.6739   -1.5818 H   0  0  0  0  0  0  0  0  0  0  0  0
    5.5630    1.8709   -1.9829 H   0  0  0  0  0  0  0  0  0  0  0  0
    0.8695   -1.2210   -2.2004 H   0  0  0  0  0  0  0  0  0  0  0  0
   -0.5361   -0.1704   -2.6018 H   0  0  0  0  0  0  0  0  0  0  0  0
   -3.0604    2.1962    1.1686 H   0  0  0  0  0  0  0  0  0  0  0  0
   -2.1657    1.8284    2.6688 H   0  0  0  0  0  0  0  0  0  0  0  0
   -1.0295    3.1996    0.1728 H   0  0  0  0  0  0  0  0  0  0  0  0
   -1.3818    3.9862    1.7214 H   0  0  0  0  0  0  0  0  0  0  0  0
   -0.0888    2.7759    1.6062 H   0  0  0  0  0  0  0  0  0  0  0  0
   -5.3405   -1.5146    0.6768 H   0  0  0  0  0  0  0  0  0  0  0  0
   -5.0517   -0.4647   -0.7429 H   0  0  0  0  0  0  0  0  0  0  0  0
   -3.8768   -3.2697   -0.4029 H   0  0  0  0  0  0  0  0  0  0  0  0
   -5.3020   -2.8807   -1.3820 H   0  0  0  0  0  0  0  0  0  0  0  0
   -3.7176   -2.2270   -1.8237 H   0  0  0  0  0  0  0  0  0  0  0  0
  1  2  1  0  0  0  0
  2  3  1  0  0  0  0
  3  4  2  0  0  0  0
  4  5  2  0  0  0  0
  4  6  2  0  0  0  0
  6  7  1  0  0  0  0
  7  8  1  0  0  0  0
  4  9  1  0  0  0  0
  9 10  1  0  0  0  0
 10 11  1  0  0  0  0
 11 12  1  0  0  0  0
 12 13  2  0  0  0  0
 12 14  2  0  0  0  0
 14 15  1  0  0  0  0
 15 16  1  0  0  0  0
 12 17  2  0  0  0  0
 17 18  1  0  0  0  0
 18 19  1  0  0  0  0
  1 20  1  0  0  0  0
  1 21  1  0  0  0  0
  1 22  1  0  0  0  0
  2 23  1  0  0  0  0
  2 24  1  0  0  0  0
  7 25  1  0  0  0  0
  7 26  1  0  0  0  0
  8 27  1  0  0  0  0
  8 28  1  0  0  0  0
  8 29  1  0  0  0  0
 10 30  1  0  0  0  0
 10 31  1  0  0  0  0
 15 32  1  0  0  0  0
 15 33  1  0  0  0  0
 16 34  1  0  0  0  0
 16 35  1  0  0  0  0
 16 36  1  0  0  0  0
 18 37  1  0  0  0  0
 18 38  1  0  0  0  0
 19 39  1  0  0  0  0
 19 40  1  0  0  0  0
 19 41  1  0  0  0  0
M  END
