 xtb: 6.7.1 (edcfbbe)
          04092505213D

 41 40  0     0  0            999 V2000
    1.9869    0.5016    3.5217 C   0  0  0  0  0  0  0  0  0  0  0  0
    0.7692    0.5797    2.6251 C   0  0  0  0  0  0  0  0  0  0  0  0
    1.1411    0.7752    1.2495 O   0  0  0  0  0  0  0  0  0  0  0  0
    1.7710   -0.3816    0.3802 P   0  0  0  0  0  0  0  0  0  0  0  0
    1.2776   -2.2237    0.8562 S   0  0  0  0  0  0  0  0  0  0  0  0
    3.3147   -0.0146    0.5283 O   0  0  0  0  0  0  0  0  0  0  0  0
    4.3620   -0.7228   -0.1602 C   0  0  0  0  0  0  0  0  0  0  0  0
    4.9055   -1.8592    0.6851 C   0  0  0  0  0  0  0  0  0  0  0  0
    1.4009    0.1923   -1.6182 S   0  0  0  0  0  0  0  0  0  0  0  0
    0.1772   -1.0593   -2.1013 C   0  0  0  0  0  0  0  0  0  0  0  0
   -1.4900   -0.4122   -2.4475 S   0  0  0  0  0  0  0  0  0  0  0  0
   -2.0109    0.4526   -0.5810 P   0  0  0  0  0  0  0  0  0  0  0  0
   -3.9159    0.8827   -0.4665 S   0  0  0  0  0  0  0  0  0  0  0  0
   -0.9861    1.6392   -0.3511 O   0  0  0  0  0  0  0  0  0  0  0  0
   -1.0323    2.8177   -1.1823 C   0  0  0  0  0  0  0  0  0  0  0  0
   -1.8136    3.9247   -0.5035 C   0  0  0  0  0  0  0  0  0  0  0  0
   -1.4097   -0.5212    0.5211 O   0  0  0  0  0  0  0  0  0  0  0  0
   -2.2083   -1.6248    1.0082 C   0  0  0  0  0  0  0  0  0  0  0  0
   -2.9045   -1.2561    2.3021 C   0  0  0  0  0  0  0  0  0  0  0  0
    1.6697    0.4391    4.5581 H   0  0  0  0  0  0  0  0  0  0  0  0
    2.5691   -0.3851    3.2734 H   0  0  0  0  0  0  0  0  0  0  0  0
    2.6110    1.3805    3.3841 H   0  0  0  0  0  0  0  0  0  0  0  0
    0.1419    1.4420    2.8555 H   0  0  0  0  0  0  0  0  0  0  0  0
    0.1749   -0.3367    2.6973 H   0  0  0  0  0  0  0  0  0  0  0  0
    3.9805   -1.0918   -1.1169 H   0  0  0  0  0  0  0  0  0  0  0  0
    5.1268    0.0341   -0.3439 H   0  0  0  0  0  0  0  0  0  0  0  0
    5.2612   -1.4791    1.6388 H   0  0  0  0  0  0  0  0  0  0  0  0
    4.1310   -2.6004    0.8694 H   0  0  0  0  0  0  0  0  0  0  0  0
    5.7283   -2.3326    0.1592 H   0  0  0  0  0  0  0  0  0  0  0  0
    0.1304   -1.8206   -1.3182 H   0  0  0  0  0  0  0  0  0  0  0  0
    0.5006   -1.4903   -3.0456 H   0  0  0  0  0  0  0  0  0  0  0  0
    0.0142    3.0955   -1.3282 H   0  0  0  0  0  0  0  0  0  0  0  0
   -1.4770    2.5611   -2.1505 H   0  0  0  0  0  0  0  0  0  0  0  0
   -2.8474    3.6186   -0.3569 H   0  0  0  0  0  0  0  0  0  0  0  0
   -1.3747    4.1527    0.4636 H   0  0  0  0  0  0  0  0  0  0  0  0
   -1.7909    4.8117   -1.1284 H   0  0  0  0  0  0  0  0  0  0  0  0
   -2.9397   -1.9045    0.2433 H   0  0  0  0  0  0  0  0  0  0  0  0
   -1.4987   -2.4434    1.1531 H   0  0  0  0  0  0  0  0  0  0  0  0
   -3.5914   -0.4295    2.1332 H   0  0  0  0  0  0  0  0  0  0  0  0
   -3.4633   -2.1156    2.6583 H   0  0  0  0  0  0  0  0  0  0  0  0
   -2.1779   -0.9632    3.0548 H   0  0  0  0  0  0  0  0  0  0  0  0
  1  2  1  0  0  0  0
  2  3  1  0  0  0  0
  3  4  2  0  0  0  0
  4  5  2  0  0  0  0
  4  6  2  0  0  0  0
  6  7  1  0  0  0  0
  7  8  1  0  0  0  0
  4  9  1  0  0  0  0
  9 10  1  0  0  0  0
 10 11  1  0  0  0  0
 11 12  1  0  0  0  0
 12 13  2  0  0  0  0
 12 14  2  0  0  0  0
 14 15  1  0  0  0  0
 15 16  1  0  0  0  0
 12 17  2  0  0  0  0
 17 18  1  0  0  0  0
 18 19  1  0  0  0  0
  1 20  1  0  0  0  0
  1 21  1  0  0  0  0
  1 22  1  0  0  0  0
  2 23  1  0  0  0  0
  2 24  1  0  0  0  0
  7 25  1  0  0  0  0
  7 26  1  0  0  0  0
  8 27  1  0  0  0  0
  8 28  1  0  0  0  0
  8 29  1  0  0  0  0
 10 30  1  0  0  0  0
 10 31  1  0  0  0  0
 15 32  1  0  0  0  0
 15 33  1  0  0  0  0
 16 34  1  0  0  0  0
 16 35  1  0  0  0  0
 16 36  1  0  0  0  0
 18 37  1  0  0  0  0
 18 38  1  0  0  0  0
 19 39  1  0  0  0  0
 19 40  1  0  0  0  0
 19 41  1  0  0  0  0
M  END
