 xtb: 6.7.1 (edcfbbe)
          04092507313D

 38 37  0     0  0            999 V2000
    1.9300   -3.0565    0.3317 C   0  0  0  0  0  0  0  0  0  0  0  0
    2.9883   -2.0064    0.0348 C   0  0  0  0  0  0  0  0  0  0  0  0
    2.3777   -0.8346   -0.5385 O   0  0  0  0  0  0  0  0  0  0  0  0
    2.2489   -0.7726   -1.8547 C   0  0  0  0  0  0  0  0  0  0  0  0
    2.7169   -1.5784   -2.6247 O   0  0  0  0  0  0  0  0  0  0  0  0
    1.4598    0.4480   -2.2880 C   0  0  0  0  0  0  0  0  0  0  0  0
    0.3264    0.7597   -1.3183 C   0  0  0  0  0  0  0  0  0  0  0  0
   -0.2672    1.6038   -1.6848 H   0  0  0  0  0  0  0  0  0  0  0  0
    0.8191    1.1116    0.0716 C   0  0  0  0  0  0  0  0  0  0  0  0
    0.3021    0.6563    1.0728 O   0  0  0  0  0  0  0  0  0  0  0  0
    1.7798    1.9911    0.0519 O   0  0  0  0  0  0  0  0  0  0  0  0
    2.2923    2.4704    1.3148 C   0  0  0  0  0  0  0  0  0  0  0  0
    3.2761    1.4850    1.9218 C   0  0  0  0  0  0  0  0  0  0  0  0
   -0.7896   -0.6773   -1.1515 S   0  0  0  0  0  0  0  0  0  0  0  0
   -2.1019    0.1073    0.3382 P   0  0  0  0  0  0  0  0  0  0  0  0
   -2.2896    2.0437    0.5572 S   0  0  0  0  0  0  0  0  0  0  0  0
   -3.4936   -0.4225   -0.2378 O   0  0  0  0  0  0  0  0  0  0  0  0
   -3.7590   -1.8097   -0.4998 C   0  0  0  0  0  0  0  0  0  0  0  0
   -2.0149   -0.8105    1.6449 O   0  0  0  0  0  0  0  0  0  0  0  0
   -1.3938   -0.4940    2.8898 C   0  0  0  0  0  0  0  0  0  0  0  0
    1.4763   -3.4015   -0.5948 H   0  0  0  0  0  0  0  0  0  0  0  0
    2.3866   -3.8981    0.8415 H   0  0  0  0  0  0  0  0  0  0  0  0
    1.1506   -2.6332    0.9613 H   0  0  0  0  0  0  0  0  0  0  0  0
    3.7340   -2.3889   -0.6674 H   0  0  0  0  0  0  0  0  0  0  0  0
    3.4705   -1.6555    0.9479 H   0  0  0  0  0  0  0  0  0  0  0  0
    1.0697    0.2579   -3.2875 H   0  0  0  0  0  0  0  0  0  0  0  0
    2.1363    1.3049   -2.3257 H   0  0  0  0  0  0  0  0  0  0  0  0
    2.7743    3.4140    1.0602 H   0  0  0  0  0  0  0  0  0  0  0  0
    1.4464    2.6445    1.9857 H   0  0  0  0  0  0  0  0  0  0  0  0
    2.7686    0.5554    2.1666 H   0  0  0  0  0  0  0  0  0  0  0  0
    4.0797    1.2781    1.2203 H   0  0  0  0  0  0  0  0  0  0  0  0
    3.6919    1.9102    2.8292 H   0  0  0  0  0  0  0  0  0  0  0  0
   -4.7431   -1.8290   -0.9612 H   0  0  0  0  0  0  0  0  0  0  0  0
   -3.7571   -2.3716    0.4324 H   0  0  0  0  0  0  0  0  0  0  0  0
   -3.0080   -2.2111   -1.1814 H   0  0  0  0  0  0  0  0  0  0  0  0
   -1.9788   -1.0102    3.6482 H   0  0  0  0  0  0  0  0  0  0  0  0
   -1.4119    0.5826    3.0593 H   0  0  0  0  0  0  0  0  0  0  0  0
   -0.3640   -0.8449    2.8865 H   0  0  0  0  0  0  0  0  0  0  0  0
  1  2  1  0  0  0  0
  2  3  1  0  0  0  0
  3  4  1  0  0  0  0
  4  5  2  0  0  0  0
  4  6  1  0  0  0  0
  6  7  1  0  0  0  0
  7  8  1  0  0  0  0
  7  9  1  0  0  0  0
  9 10  2  0  0  0  0
  9 11  4  0  0  0  0
 11 12  1  0  0  0  0
 12 13  1  0  0  0  0
  7 14  1  0  0  0  0
 14 15  1  0  0  0  0
 15 16  2  0  0  0  0
 15 17  1  0  0  0  0
 17 18  1  0  0  0  0
 15 19  2  0  0  0  0
 19 20  1  0  0  0  0
  1 21  1  0  0  0  0
  1 22  1  0  0  0  0
  1 23  1  0  0  0  0
  2 24  1  0  0  0  0
  2 25  1  0  0  0  0
  6 26  1  0  0  0  0
  6 27  1  0  0  0  0
 12 28  1  0  0  0  0
 12 29  1  0  0  0  0
 13 30  1  0  0  0  0
 13 31  1  0  0  0  0
 13 32  1  0  0  0  0
 18 33  1  0  0  0  0
 18 34  1  0  0  0  0
 18 35  1  0  0  0  0
 20 36  1  0  0  0  0
 20 37  1  0  0  0  0
 20 38  1  0  0  0  0
M  END
