 xtb: 6.7.1 (edcfbbe)
          04092507313D

 38 37  0     0  0            999 V2000
    4.4790   -3.1243   -2.1420 C   0  0  0  0  0  0  0  0  0  0  0  0
    3.0958   -3.1693   -1.5222 C   0  0  0  0  0  0  0  0  0  0  0  0
    2.8484   -1.9007   -0.8846 O   0  0  0  0  0  0  0  0  0  0  0  0
    1.8944   -1.8298    0.0160 C   0  0  0  0  0  0  0  0  0  0  0  0
    1.2112   -2.7658    0.3704 O   0  0  0  0  0  0  0  0  0  0  0  0
    1.7236   -0.4128    0.5328 C   0  0  0  0  0  0  0  0  0  0  0  0
    1.0284    0.4202   -0.5501 C   0  0  0  0  0  0  0  0  0  0  0  0
    1.7062    0.5772   -1.3926 H   0  0  0  0  0  0  0  0  0  0  0  0
    0.5674    1.7586   -0.0031 C   0  0  0  0  0  0  0  0  0  0  0  0
   -0.6041    2.0833    0.0154 O   0  0  0  0  0  0  0  0  0  0  0  0
    1.5579    2.4701    0.4479 O   0  0  0  0  0  0  0  0  0  0  0  0
    1.2705    3.7600    1.0352 C   0  0  0  0  0  0  0  0  0  0  0  0
    1.1691    4.8330   -0.0356 C   0  0  0  0  0  0  0  0  0  0  0  0
   -0.4277   -0.4219   -1.2653 S   0  0  0  0  0  0  0  0  0  0  0  0
   -1.8930   -0.1079    0.2384 P   0  0  0  0  0  0  0  0  0  0  0  0
   -1.4323    0.1727    2.1328 S   0  0  0  0  0  0  0  0  0  0  0  0
   -3.0379    0.7913   -0.3873 O   0  0  0  0  0  0  0  0  0  0  0  0
   -3.4096    2.0955    0.0646 C   0  0  0  0  0  0  0  0  0  0  0  0
   -2.7091   -1.4761    0.0425 O   0  0  0  0  0  0  0  0  0  0  0  0
   -2.2016   -2.7114    0.5509 C   0  0  0  0  0  0  0  0  0  0  0  0
    5.2298   -2.9689   -1.3730 H   0  0  0  0  0  0  0  0  0  0  0  0
    4.6751   -4.0639   -2.6477 H   0  0  0  0  0  0  0  0  0  0  0  0
    4.5371   -2.3120   -2.8599 H   0  0  0  0  0  0  0  0  0  0  0  0
    3.0069   -3.9592   -0.7701 H   0  0  0  0  0  0  0  0  0  0  0  0
    2.3192   -3.3196   -2.2784 H   0  0  0  0  0  0  0  0  0  0  0  0
    2.6966    0.0282    0.7463 H   0  0  0  0  0  0  0  0  0  0  0  0
    1.1176   -0.4462    1.4403 H   0  0  0  0  0  0  0  0  0  0  0  0
    0.3411    3.6819    1.6055 H   0  0  0  0  0  0  0  0  0  0  0  0
    2.1126    3.9396    1.7029 H   0  0  0  0  0  0  0  0  0  0  0  0
    0.3307    4.6283   -0.6973 H   0  0  0  0  0  0  0  0  0  0  0  0
    1.0137    5.7959    0.4394 H   0  0  0  0  0  0  0  0  0  0  0  0
    2.0836    4.8660   -0.6210 H   0  0  0  0  0  0  0  0  0  0  0  0
   -2.9432    2.8419   -0.5754 H   0  0  0  0  0  0  0  0  0  0  0  0
   -3.0917    2.2458    1.0975 H   0  0  0  0  0  0  0  0  0  0  0  0
   -4.4939    2.1409   -0.0098 H   0  0  0  0  0  0  0  0  0  0  0  0
   -2.9062   -3.4726    0.2278 H   0  0  0  0  0  0  0  0  0  0  0  0
   -2.1526   -2.6712    1.6404 H   0  0  0  0  0  0  0  0  0  0  0  0
   -1.2046   -2.9215    0.1582 H   0  0  0  0  0  0  0  0  0  0  0  0
  1  2  1  0  0  0  0
  2  3  1  0  0  0  0
  3  4  4  0  0  0  0
  4  5  2  0  0  0  0
  4  6  1  0  0  0  0
  6  7  1  0  0  0  0
  7  8  1  0  0  0  0
  7  9  1  0  0  0  0
  9 10  2  0  0  0  0
  9 11  4  0  0  0  0
 11 12  1  0  0  0  0
 12 13  1  0  0  0  0
  7 14  1  0  0  0  0
 14 15  1  0  0  0  0
 15 16  2  0  0  0  0
 15 17  2  0  0  0  0
 17 18  1  0  0  0  0
 15 19  1  0  0  0  0
 19 20  1  0  0  0  0
  1 21  1  0  0  0  0
  1 22  1  0  0  0  0
  1 23  1  0  0  0  0
  2 24  1  0  0  0  0
  2 25  1  0  0  0  0
  6 26  1  0  0  0  0
  6 27  1  0  0  0  0
 12 28  1  0  0  0  0
 12 29  1  0  0  0  0
 13 30  1  0  0  0  0
 13 31  1  0  0  0  0
 13 32  1  0  0  0  0
 18 33  1  0  0  0  0
 18 34  1  0  0  0  0
 18 35  1  0  0  0  0
 20 36  1  0  0  0  0
 20 37  1  0  0  0  0
 20 38  1  0  0  0  0
M  END
