 xtb: 6.7.1 (edcfbbe)
          04092505203D

 41 40  0     0  0            999 V2000
    4.6304   -1.6025   -0.7051 C   0  0  0  0  0  0  0  0  0  0  0  0
    4.6694   -0.1490   -0.2790 C   0  0  0  0  0  0  0  0  0  0  0  0
    3.5016    0.2318    0.4680 O   0  0  0  0  0  0  0  0  0  0  0  0
    2.0570    0.3376   -0.1904 P   0  0  0  0  0  0  0  0  0  0  0  0
    2.0528    1.0329   -2.0266 S   0  0  0  0  0  0  0  0  0  0  0  0
    1.2796    1.1567    0.9209 O   0  0  0  0  0  0  0  0  0  0  0  0
    1.2344    2.5957    0.9351 C   0  0  0  0  0  0  0  0  0  0  0  0
    2.5930    3.2082    1.1985 C   0  0  0  0  0  0  0  0  0  0  0  0
    1.2596   -1.5801    0.1355 S   0  0  0  0  0  0  0  0  0  0  0  0
    0.0448   -1.6941   -1.2267 C   0  0  0  0  0  0  0  0  0  0  0  0
   -1.6275   -2.0092   -0.6301 S   0  0  0  0  0  0  0  0  0  0  0  0
   -2.0212   -0.0808    0.1773 P   0  0  0  0  0  0  0  0  0  0  0  0
   -1.4107    1.4090   -0.9410 S   0  0  0  0  0  0  0  0  0  0  0  0
   -1.3928    0.0018    1.6156 O   0  0  0  0  0  0  0  0  0  0  0  0
   -1.3333   -1.0510    2.6133 C   0  0  0  0  0  0  0  0  0  0  0  0
   -2.6769   -1.6826    2.9023 C   0  0  0  0  0  0  0  0  0  0  0  0
   -3.5779   -0.1364    0.4775 O   0  0  0  0  0  0  0  0  0  0  0  0
   -4.5785   -0.2281   -0.5561 C   0  0  0  0  0  0  0  0  0  0  0  0
   -5.0666    1.1471   -0.9681 C   0  0  0  0  0  0  0  0  0  0  0  0
    3.8460   -1.7514   -1.4459 H   0  0  0  0  0  0  0  0  0  0  0  0
    5.5849   -1.8719   -1.1456 H   0  0  0  0  0  0  0  0  0  0  0  0
    4.4323   -2.2427    0.1509 H   0  0  0  0  0  0  0  0  0  0  0  0
    4.7469    0.5042   -1.1541 H   0  0  0  0  0  0  0  0  0  0  0  0
    5.4936    0.0479    0.4079 H   0  0  0  0  0  0  0  0  0  0  0  0
    0.8278    2.9373   -0.0231 H   0  0  0  0  0  0  0  0  0  0  0  0
    0.5202    2.8226    1.7285 H   0  0  0  0  0  0  0  0  0  0  0  0
    3.0262    2.7850    2.1011 H   0  0  0  0  0  0  0  0  0  0  0  0
    3.2582    3.0098    0.3589 H   0  0  0  0  0  0  0  0  0  0  0  0
    2.4833    4.2819    1.3151 H   0  0  0  0  0  0  0  0  0  0  0  0
    0.3118   -2.5455   -1.8469 H   0  0  0  0  0  0  0  0  0  0  0  0
    0.0698   -0.7623   -1.7988 H   0  0  0  0  0  0  0  0  0  0  0  0
   -0.6127   -1.7994    2.2707 H   0  0  0  0  0  0  0  0  0  0  0  0
   -0.9334   -0.5339    3.4869 H   0  0  0  0  0  0  0  0  0  0  0  0
   -2.5689   -2.3603    3.7437 H   0  0  0  0  0  0  0  0  0  0  0  0
   -3.4088   -0.9175    3.1478 H   0  0  0  0  0  0  0  0  0  0  0  0
   -3.0272   -2.2448    2.0394 H   0  0  0  0  0  0  0  0  0  0  0  0
   -4.1665   -0.7713   -1.4104 H   0  0  0  0  0  0  0  0  0  0  0  0
   -5.3818   -0.8135   -0.1051 H   0  0  0  0  0  0  0  0  0  0  0  0
   -5.8603    1.0411   -1.7005 H   0  0  0  0  0  0  0  0  0  0  0  0
   -5.4439    1.6847   -0.1027 H   0  0  0  0  0  0  0  0  0  0  0  0
   -4.2529    1.7208   -1.4066 H   0  0  0  0  0  0  0  0  0  0  0  0
  1  2  1  0  0  0  0
  2  3  1  0  0  0  0
  3  4  2  0  0  0  0
  4  5  2  0  0  0  0
  4  6  2  0  0  0  0
  6  7  1  0  0  0  0
  7  8  1  0  0  0  0
  4  9  1  0  0  0  0
  9 10  1  0  0  0  0
 10 11  1  0  0  0  0
 11 12  1  0  0  0  0
 12 13  2  0  0  0  0
 12 14  2  0  0  0  0
 14 15  1  0  0  0  0
 15 16  1  0  0  0  0
 12 17  2  0  0  0  0
 17 18  1  0  0  0  0
 18 19  1  0  0  0  0
  1 20  1  0  0  0  0
  1 21  1  0  0  0  0
  1 22  1  0  0  0  0
  2 23  1  0  0  0  0
  2 24  1  0  0  0  0
  7 25  1  0  0  0  0
  7 26  1  0  0  0  0
  8 27  1  0  0  0  0
  8 28  1  0  0  0  0
  8 29  1  0  0  0  0
 10 30  1  0  0  0  0
 10 31  1  0  0  0  0
 15 32  1  0  0  0  0
 15 33  1  0  0  0  0
 16 34  1  0  0  0  0
 16 35  1  0  0  0  0
 16 36  1  0  0  0  0
 18 37  1  0  0  0  0
 18 38  1  0  0  0  0
 19 39  1  0  0  0  0
 19 40  1  0  0  0  0
 19 41  1  0  0  0  0
M  END
