 xtb: 6.7.1 (edcfbbe)
          04092505203D

 41 40  0     0  0            999 V2000
    2.9456   -0.3100   -2.6616 C   0  0  0  0  0  0  0  0  0  0  0  0
    1.7101    0.3031   -2.0394 C   0  0  0  0  0  0  0  0  0  0  0  0
    1.2245   -0.5008   -0.9500 O   0  0  0  0  0  0  0  0  0  0  0  0
    1.9796   -0.5458    0.4530 P   0  0  0  0  0  0  0  0  0  0  0  0
    3.0107    1.0724    0.8785 S   0  0  0  0  0  0  0  0  0  0  0  0
    2.8072   -1.8902    0.2750 O   0  0  0  0  0  0  0  0  0  0  0  0
    3.3282   -2.7089    1.3396 C   0  0  0  0  0  0  0  0  0  0  0  0
    4.1215   -1.9219    2.3619 C   0  0  0  0  0  0  0  0  0  0  0  0
    0.4482   -1.1402    1.7694 S   0  0  0  0  0  0  0  0  0  0  0  0
   -0.3674    0.4654    2.0551 C   0  0  0  0  0  0  0  0  0  0  0  0
   -0.4452    1.5617    0.6142 S   0  0  0  0  0  0  0  0  0  0  0  0
   -1.9229    0.6045   -0.5659 P   0  0  0  0  0  0  0  0  0  0  0  0
   -1.9812    1.1327   -2.4496 S   0  0  0  0  0  0  0  0  0  0  0  0
   -3.2931    0.7948    0.2323 O   0  0  0  0  0  0  0  0  0  0  0  0
   -4.1608    1.9152    0.0041 C   0  0  0  0  0  0  0  0  0  0  0  0
   -3.5596    3.2132    0.5052 C   0  0  0  0  0  0  0  0  0  0  0  0
   -1.6096   -0.9128   -0.2524 O   0  0  0  0  0  0  0  0  0  0  0  0
   -1.9825   -1.9751   -1.1517 C   0  0  0  0  0  0  0  0  0  0  0  0
   -3.4813   -2.1858   -1.1749 C   0  0  0  0  0  0  0  0  0  0  0  0
    2.7390   -1.3283   -2.9800 H   0  0  0  0  0  0  0  0  0  0  0  0
    3.2520    0.2850   -3.5160 H   0  0  0  0  0  0  0  0  0  0  0  0
    3.7509   -0.3260   -1.9278 H   0  0  0  0  0  0  0  0  0  0  0  0
    0.8744    0.3482   -2.7413 H   0  0  0  0  0  0  0  0  0  0  0  0
    1.9202    1.3115   -1.6643 H   0  0  0  0  0  0  0  0  0  0  0  0
    2.4865   -3.2209    1.8146 H   0  0  0  0  0  0  0  0  0  0  0  0
    3.9568   -3.4338    0.8190 H   0  0  0  0  0  0  0  0  0  0  0  0
    4.9166   -1.3605    1.8770 H   0  0  0  0  0  0  0  0  0  0  0  0
    3.4723   -1.2187    2.8816 H   0  0  0  0  0  0  0  0  0  0  0  0
    4.5537   -2.6061    3.0850 H   0  0  0  0  0  0  0  0  0  0  0  0
    0.1981    1.0222    2.8001 H   0  0  0  0  0  0  0  0  0  0  0  0
   -1.3714    0.2371    2.4054 H   0  0  0  0  0  0  0  0  0  0  0  0
   -4.3670    1.9797   -1.0692 H   0  0  0  0  0  0  0  0  0  0  0  0
   -5.0735    1.6580    0.5434 H   0  0  0  0  0  0  0  0  0  0  0  0
   -3.2943    3.1313    1.5561 H   0  0  0  0  0  0  0  0  0  0  0  0
   -2.6613    3.4513   -0.0647 H   0  0  0  0  0  0  0  0  0  0  0  0
   -4.2794    4.0154    0.3777 H   0  0  0  0  0  0  0  0  0  0  0  0
   -1.6074   -1.7323   -2.1509 H   0  0  0  0  0  0  0  0  0  0  0  0
   -1.4524   -2.8441   -0.7586 H   0  0  0  0  0  0  0  0  0  0  0  0
   -3.7126   -3.0545   -1.7832 H   0  0  0  0  0  0  0  0  0  0  0  0
   -3.8545   -2.3389   -0.1658 H   0  0  0  0  0  0  0  0  0  0  0  0
   -3.9700   -1.3123   -1.6048 H   0  0  0  0  0  0  0  0  0  0  0  0
  1  2  1  0  0  0  0
  2  3  1  0  0  0  0
  3  4  1  0  0  0  0
  4  5  2  0  0  0  0
  4  6  2  0  0  0  0
  6  7  1  0  0  0  0
  7  8  1  0  0  0  0
  4  9  1  0  0  0  0
  9 10  1  0  0  0  0
 10 11  1  0  0  0  0
 11 12  1  0  0  0  0
 12 13  2  0  0  0  0
 12 14  1  0  0  0  0
 14 15  1  0  0  0  0
 15 16  1  0  0  0  0
 12 17  2  0  0  0  0
 17 18  1  0  0  0  0
 18 19  1  0  0  0  0
  1 20  1  0  0  0  0
  1 21  1  0  0  0  0
  1 22  1  0  0  0  0
  2 23  1  0  0  0  0
  2 24  1  0  0  0  0
  7 25  1  0  0  0  0
  7 26  1  0  0  0  0
  8 27  1  0  0  0  0
  8 28  1  0  0  0  0
  8 29  1  0  0  0  0
 10 30  1  0  0  0  0
 10 31  1  0  0  0  0
 15 32  1  0  0  0  0
 15 33  1  0  0  0  0
 16 34  1  0  0  0  0
 16 35  1  0  0  0  0
 16 36  1  0  0  0  0
 18 37  1  0  0  0  0
 18 38  1  0  0  0  0
 19 39  1  0  0  0  0
 19 40  1  0  0  0  0
 19 41  1  0  0  0  0
M  END
