 xtb: 6.7.1 (edcfbbe)
          04092505213D

 41 40  0     0  0            999 V2000
    4.0617   -0.1305   -2.7892 C   0  0  0  0  0  0  0  0  0  0  0  0
    2.6069   -0.3031   -2.4051 C   0  0  0  0  0  0  0  0  0  0  0  0
    2.2549    0.6050   -1.3323 O   0  0  0  0  0  0  0  0  0  0  0  0
    2.1148    0.1663    0.1681 P   0  0  0  0  0  0  0  0  0  0  0  0
    1.4964    1.6604    1.2702 S   0  0  0  0  0  0  0  0  0  0  0  0
    3.5887   -0.3717    0.4591 O   0  0  0  0  0  0  0  0  0  0  0  0
    3.9732   -1.2092    1.5637 C   0  0  0  0  0  0  0  0  0  0  0  0
    3.7226   -0.5601    2.9093 C   0  0  0  0  0  0  0  0  0  0  0  0
    0.9504   -1.6238    0.2425 S   0  0  0  0  0  0  0  0  0  0  0  0
   -0.2593   -1.1521    1.5185 C   0  0  0  0  0  0  0  0  0  0  0  0
   -1.9927   -1.3865    1.0322 S   0  0  0  0  0  0  0  0  0  0  0  0
   -2.3397    0.2116   -0.3281 P   0  0  0  0  0  0  0  0  0  0  0  0
   -0.8547    0.7940   -1.4802 S   0  0  0  0  0  0  0  0  0  0  0  0
   -3.0206    1.3538    0.5339 O   0  0  0  0  0  0  0  0  0  0  0  0
   -2.2883    2.1603    1.4764 C   0  0  0  0  0  0  0  0  0  0  0  0
   -3.0559    3.4511    1.6774 C   0  0  0  0  0  0  0  0  0  0  0  0
   -3.6505   -0.2361   -1.0792 O   0  0  0  0  0  0  0  0  0  0  0  0
   -3.5969   -0.9704   -2.3179 C   0  0  0  0  0  0  0  0  0  0  0  0
   -3.0279   -2.3629   -2.1331 C   0  0  0  0  0  0  0  0  0  0  0  0
    4.2491    0.9004   -3.0770 H   0  0  0  0  0  0  0  0  0  0  0  0
    4.7045   -0.3816   -1.9496 H   0  0  0  0  0  0  0  0  0  0  0  0
    4.2874   -0.7844   -3.6255 H   0  0  0  0  0  0  0  0  0  0  0  0
    2.3959   -1.3286   -2.0885 H   0  0  0  0  0  0  0  0  0  0  0  0
    1.9361   -0.0308   -3.2227 H   0  0  0  0  0  0  0  0  0  0  0  0
    3.4317   -2.1562    1.4809 H   0  0  0  0  0  0  0  0  0  0  0  0
    5.0388   -1.3774    1.3979 H   0  0  0  0  0  0  0  0  0  0  0  0
    2.6557   -0.4099    3.0660 H   0  0  0  0  0  0  0  0  0  0  0  0
    4.1112   -1.2003    3.6947 H   0  0  0  0  0  0  0  0  0  0  0  0
    4.2126    0.4093    2.9587 H   0  0  0  0  0  0  0  0  0  0  0  0
   -0.0725   -0.1091    1.7913 H   0  0  0  0  0  0  0  0  0  0  0  0
   -0.1226   -1.8163    2.3682 H   0  0  0  0  0  0  0  0  0  0  0  0
   -2.2066    1.6018    2.4137 H   0  0  0  0  0  0  0  0  0  0  0  0
   -1.2815    2.3560    1.0890 H   0  0  0  0  0  0  0  0  0  0  0  0
   -4.0590    3.2315    2.0308 H   0  0  0  0  0  0  0  0  0  0  0  0
   -2.5365    4.0617    2.4087 H   0  0  0  0  0  0  0  0  0  0  0  0
   -3.1235    3.9944    0.7390 H   0  0  0  0  0  0  0  0  0  0  0  0
   -4.6364   -0.9987   -2.6471 H   0  0  0  0  0  0  0  0  0  0  0  0
   -2.9951   -0.3999   -3.0328 H   0  0  0  0  0  0  0  0  0  0  0  0
   -3.1196   -2.9143   -3.0634 H   0  0  0  0  0  0  0  0  0  0  0  0
   -1.9742   -2.3020   -1.8621 H   0  0  0  0  0  0  0  0  0  0  0  0
   -3.5630   -2.8883   -1.3461 H   0  0  0  0  0  0  0  0  0  0  0  0
  1  2  1  0  0  0  0
  2  3  1  0  0  0  0
  3  4  2  0  0  0  0
  4  5  2  0  0  0  0
  4  6  2  0  0  0  0
  6  7  1  0  0  0  0
  7  8  1  0  0  0  0
  4  9  1  0  0  0  0
  9 10  1  0  0  0  0
 10 11  1  0  0  0  0
 11 12  1  0  0  0  0
 12 13  2  0  0  0  0
 12 14  2  0  0  0  0
 14 15  1  0  0  0  0
 15 16  1  0  0  0  0
 12 17  2  0  0  0  0
 17 18  1  0  0  0  0
 18 19  1  0  0  0  0
  1 20  1  0  0  0  0
  1 21  1  0  0  0  0
  1 22  1  0  0  0  0
  2 23  1  0  0  0  0
  2 24  1  0  0  0  0
  7 25  1  0  0  0  0
  7 26  1  0  0  0  0
  8 27  1  0  0  0  0
  8 28  1  0  0  0  0
  8 29  1  0  0  0  0
 10 30  1  0  0  0  0
 10 31  1  0  0  0  0
 15 32  1  0  0  0  0
 15 33  1  0  0  0  0
 16 34  1  0  0  0  0
 16 35  1  0  0  0  0
 16 36  1  0  0  0  0
 18 37  1  0  0  0  0
 18 38  1  0  0  0  0
 19 39  1  0  0  0  0
 19 40  1  0  0  0  0
 19 41  1  0  0  0  0
M  END
