8
 xtb: 6.7.1 (edcfbbe)
C            0.65743942195851        0.00007235748361       -0.39095117289152
C           -0.65765017254487        0.00015040498078        0.39085762471540
Cl          -1.61544072417019        1.46684474390493       -0.03131488354009
Cl          -1.61550816285353       -1.46652331918661       -0.03119339994970
Cl           1.61535894566575        1.46670422346674        0.03113460768900
Cl           1.61516705047315       -1.46667492542549        0.03115204997383
H            0.49699210053398        0.00007064479533       -1.47067016781661
H           -0.49720366551607        0.00018515859580        1.47057673820401
