41
 xtb: 6.7.1 (edcfbbe)
C            2.94171945055341       -1.22307810243177       -2.86922671142234
C            1.73164108863288       -1.00597206664183       -1.99611801757967
O            1.96544222548641        0.13956174362161       -1.09295045612674
P            2.30730738254669       -0.06079423717084        0.45950128829484
S            2.77045341167363        1.62691296062562        1.30643527526015
O            3.43086768021031       -1.21138578015446        0.38380271742341
C            4.12788098337813       -1.67819372688783        1.59246423349520
C            5.43475096322501       -2.28235937482088        1.15015558509905
S            0.73069035195068       -1.14812017313873        1.38448265699412
C           -0.35572393549449        0.20497744043277        2.02594977922477
S           -2.11746955757705        0.02101960899199        1.56783905281719
P           -2.10071218654578        0.82783377988883       -0.40232029875448
S           -1.23286536046096        2.55359746057184       -0.60018970183500
O           -3.66529332926101        0.70121252043021       -0.74930421603163
C           -4.60034139406466        1.83572434723338       -0.67858881598049
C           -4.99548270642820        2.15537156308952        0.74061116905959
O           -1.42849431133871       -0.26484604200146       -1.36001678384579
C           -1.94102928543515       -1.64297177651558       -1.47328557448340
C           -2.58123282713765       -1.82395817158059       -2.82597534055014
H            3.17571927171812       -0.31976228966705       -3.43960934218515
H            3.81517123130784       -1.51088486653518       -2.27866700342042
H            2.72157525310721       -2.02858412913340       -3.57761159047288
H            1.48529549333307       -1.89338167874215       -1.40501930168876
H            0.85604963681965       -0.72148876405123       -2.58254524112786
H            4.28200404202275       -0.82429772132100        2.25990671041878
H            3.48437099205780       -2.41256787717670        2.08547229343302
H            6.06816141549615       -1.53336351868507        0.66683993417941
H            5.96116556602195       -2.66680460354226        2.02919243364250
H            5.26836233903281       -3.11257190006235        0.45786289263551
H            0.02447504012338        1.17611016250927        1.69271975768029
H           -0.32995299745381        0.16679740750335        3.11749777165443
H           -4.13625623187661        2.69062397144523       -1.17861564476582
H           -5.45375445465203        1.49610801249518       -1.26851080579594
H           -4.14793839685264        2.53350246254174        1.31950986203685
H           -5.76543635790512        2.93370609066091        0.71879797241232
H           -5.40949587843418        1.27575230088598        1.24206783985027
H           -1.06370478579690       -2.28167134119833       -1.34533112392530
H           -2.64198983300821       -1.84364493673503       -0.65790285287393
H           -1.86748654636551       -1.61050205323807       -3.62681711998277
H           -2.90943793708142       -2.86379552987864       -2.92516840994693
H           -3.45244117998662       -1.17296724355179       -2.93964632184670
