 xtb: 6.7.1 (edcfbbe)
          04092507313D

 38 37  0     0  0            999 V2000
    3.5020   -3.0413    0.4904 C   0  0  0  0  0  0  0  0  0  0  0  0
    2.9807   -1.6838    0.9327 C   0  0  0  0  0  0  0  0  0  0  0  0
    2.7147   -0.8388   -0.2034 O   0  0  0  0  0  0  0  0  0  0  0  0
    1.5736   -0.9664   -0.8395 C   0  0  0  0  0  0  0  0  0  0  0  0
    0.6859   -1.7403   -0.5305 O   0  0  0  0  0  0  0  0  0  0  0  0
    1.4684   -0.0178   -2.0144 C   0  0  0  0  0  0  0  0  0  0  0  0
    0.2390    0.8812   -1.8699 C   0  0  0  0  0  0  0  0  0  0  0  0
    0.1173    1.4777   -2.7792 H   0  0  0  0  0  0  0  0  0  0  0  0
    0.3258    1.8305   -0.6860 C   0  0  0  0  0  0  0  0  0  0  0  0
   -0.6199    2.0319    0.0500 O   0  0  0  0  0  0  0  0  0  0  0  0
    1.4996    2.3901   -0.5928 O   0  0  0  0  0  0  0  0  0  0  0  0
    1.7743    3.2686    0.5204 C   0  0  0  0  0  0  0  0  0  0  0  0
    2.4586    2.4959    1.6353 C   0  0  0  0  0  0  0  0  0  0  0  0
   -1.3261   -0.0415   -1.7327 S   0  0  0  0  0  0  0  0  0  0  0  0
   -1.5375   -0.4573    0.3595 P   0  0  0  0  0  0  0  0  0  0  0  0
   -0.2978   -0.2042    1.8590 S   0  0  0  0  0  0  0  0  0  0  0  0
   -2.9834    0.1891    0.6498 O   0  0  0  0  0  0  0  0  0  0  0  0
   -3.2384    1.5152    1.1030 C   0  0  0  0  0  0  0  0  0  0  0  0
   -1.9713   -1.9824    0.3609 O   0  0  0  0  0  0  0  0  0  0  0  0
   -2.9173   -2.5531   -0.5566 C   0  0  0  0  0  0  0  0  0  0  0  0
    4.3813   -2.9187   -0.1361 H   0  0  0  0  0  0  0  0  0  0  0  0
    3.7628   -3.6245    1.3671 H   0  0  0  0  0  0  0  0  0  0  0  0
    2.7350   -3.5724   -0.0691 H   0  0  0  0  0  0  0  0  0  0  0  0
    3.7277   -1.1356    1.5063 H   0  0  0  0  0  0  0  0  0  0  0  0
    2.0619   -1.7839    1.5179 H   0  0  0  0  0  0  0  0  0  0  0  0
    1.3566   -0.6133   -2.9216 H   0  0  0  0  0  0  0  0  0  0  0  0
    2.3689    0.5929   -2.0666 H   0  0  0  0  0  0  0  0  0  0  0  0
    2.4280    4.0366    0.1062 H   0  0  0  0  0  0  0  0  0  0  0  0
    0.8340    3.7056    0.8651 H   0  0  0  0  0  0  0  0  0  0  0  0
    3.3679    2.0316    1.2644 H   0  0  0  0  0  0  0  0  0  0  0  0
    2.7040    3.1751    2.4446 H   0  0  0  0  0  0  0  0  0  0  0  0
    1.7973    1.7184    2.0161 H   0  0  0  0  0  0  0  0  0  0  0  0
   -2.5064    1.8019    1.8588 H   0  0  0  0  0  0  0  0  0  0  0  0
   -4.2392    1.4898    1.5280 H   0  0  0  0  0  0  0  0  0  0  0  0
   -3.1874    2.2110    0.2667 H   0  0  0  0  0  0  0  0  0  0  0  0
   -3.0826   -3.5653   -0.1961 H   0  0  0  0  0  0  0  0  0  0  0  0
   -2.4942   -2.5685   -1.5609 H   0  0  0  0  0  0  0  0  0  0  0  0
   -3.8443   -1.9817   -0.5462 H   0  0  0  0  0  0  0  0  0  0  0  0
  1  2  1  0  0  0  0
  2  3  1  0  0  0  0
  3  4  4  0  0  0  0
  4  5  2  0  0  0  0
  4  6  1  0  0  0  0
  6  7  1  0  0  0  0
  7  8  1  0  0  0  0
  7  9  1  0  0  0  0
  9 10  2  0  0  0  0
  9 11  4  0  0  0  0
 11 12  1  0  0  0  0
 12 13  1  0  0  0  0
  7 14  1  0  0  0  0
 14 15  1  0  0  0  0
 15 16  2  0  0  0  0
 15 17  1  0  0  0  0
 17 18  1  0  0  0  0
 15 19  2  0  0  0  0
 19 20  1  0  0  0  0
  1 21  1  0  0  0  0
  1 22  1  0  0  0  0
  1 23  1  0  0  0  0
  2 24  1  0  0  0  0
  2 25  1  0  0  0  0
  6 26  1  0  0  0  0
  6 27  1  0  0  0  0
 12 28  1  0  0  0  0
 12 29  1  0  0  0  0
 13 30  1  0  0  0  0
 13 31  1  0  0  0  0
 13 32  1  0  0  0  0
 18 33  1  0  0  0  0
 18 34  1  0  0  0  0
 18 35  1  0  0  0  0
 20 36  1  0  0  0  0
 20 37  1  0  0  0  0
 20 38  1  0  0  0  0
M  END
