 xtb: 6.7.1 (edcfbbe)
          04092513583D

 41 40  0     0  0            999 V2000
    5.2972   -2.1762   -1.6676 C   0  0  0  0  0  0  0  0  0  0  0  0
    4.2612   -1.0723   -1.7476 C   0  0  0  0  0  0  0  0  0  0  0  0
    3.2737   -1.3094   -0.7222 O   0  0  0  0  0  0  0  0  0  0  0  0
    2.2975   -0.1682   -0.1971 P   0  0  0  0  0  0  0  0  0  0  0  0
    3.1891    1.5208    0.2576 S   0  0  0  0  0  0  0  0  0  0  0  0
    1.5567   -0.9229    0.9744 O   0  0  0  0  0  0  0  0  0  0  0  0
    1.9613   -0.8507    2.3610 C   0  0  0  0  0  0  0  0  0  0  0  0
    0.7147   -0.8244    3.2216 C   0  0  0  0  0  0  0  0  0  0  0  0
    0.7913   -0.0919   -1.6705 S   0  0  0  0  0  0  0  0  0  0  0  0
    0.1266    1.5486   -1.2593 C   0  0  0  0  0  0  0  0  0  0  0  0
   -0.6234    1.6494    0.3879 S   0  0  0  0  0  0  0  0  0  0  0  0
   -2.2027    0.2845    0.0515 P   0  0  0  0  0  0  0  0  0  0  0  0
   -3.0737    0.3327   -1.7069 S   0  0  0  0  0  0  0  0  0  0  0  0
   -3.1656    0.4940    1.2979 O   0  0  0  0  0  0  0  0  0  0  0  0
   -4.3132    1.3623    1.2807 C   0  0  0  0  0  0  0  0  0  0  0  0
   -3.9307    2.8276    1.3357 C   0  0  0  0  0  0  0  0  0  0  0  0
   -1.4725   -1.0653    0.4412 O   0  0  0  0  0  0  0  0  0  0  0  0
   -1.8551   -2.3439   -0.0986 C   0  0  0  0  0  0  0  0  0  0  0  0
   -3.1382   -2.8542    0.5239 C   0  0  0  0  0  0  0  0  0  0  0  0
    4.8182   -3.1438   -1.7864 H   0  0  0  0  0  0  0  0  0  0  0  0
    6.0257   -2.0366   -2.4598 H   0  0  0  0  0  0  0  0  0  0  0  0
    5.8035   -2.1488   -0.7069 H   0  0  0  0  0  0  0  0  0  0  0  0
    3.7524   -1.0736   -2.7151 H   0  0  0  0  0  0  0  0  0  0  0  0
    4.7103   -0.0879   -1.5785 H   0  0  0  0  0  0  0  0  0  0  0  0
    2.5711   -1.7337    2.5653 H   0  0  0  0  0  0  0  0  0  0  0  0
    2.5671    0.0504    2.5064 H   0  0  0  0  0  0  0  0  0  0  0  0
    1.0032   -0.8201    4.2678 H   0  0  0  0  0  0  0  0  0  0  0  0
    0.1275    0.0653    3.0063 H   0  0  0  0  0  0  0  0  0  0  0  0
    0.1048   -1.6998    3.0171 H   0  0  0  0  0  0  0  0  0  0  0  0
   -0.6220    1.7668   -2.0204 H   0  0  0  0  0  0  0  0  0  0  0  0
    0.9330    2.2812   -1.2717 H   0  0  0  0  0  0  0  0  0  0  0  0
   -4.8950    1.1509    0.3776 H   0  0  0  0  0  0  0  0  0  0  0  0
   -4.8786    1.0643    2.1650 H   0  0  0  0  0  0  0  0  0  0  0  0
   -4.8310    3.4258    1.4394 H   0  0  0  0  0  0  0  0  0  0  0  0
   -3.2739    3.0175    2.1806 H   0  0  0  0  0  0  0  0  0  0  0  0
   -3.4171    3.1181    0.4205 H   0  0  0  0  0  0  0  0  0  0  0  0
   -1.9618   -2.2464   -1.1844 H   0  0  0  0  0  0  0  0  0  0  0  0
   -1.0054   -2.9900    0.1281 H   0  0  0  0  0  0  0  0  0  0  0  0
   -3.0506   -2.8755    1.6068 H   0  0  0  0  0  0  0  0  0  0  0  0
   -3.9672   -2.2028    0.2501 H   0  0  0  0  0  0  0  0  0  0  0  0
   -3.3404   -3.8559    0.1571 H   0  0  0  0  0  0  0  0  0  0  0  0
  1  2  1  0  0  0  0
  2  3  1  0  0  0  0
  3  4  2  0  0  0  0
  4  5  2  0  0  0  0
  4  6  2  0  0  0  0
  6  7  1  0  0  0  0
  7  8  1  0  0  0  0
  4  9  1  0  0  0  0
  9 10  1  0  0  0  0
 10 11  1  0  0  0  0
 11 12  1  0  0  0  0
 12 13  2  0  0  0  0
 12 14  2  0  0  0  0
 14 15  1  0  0  0  0
 15 16  1  0  0  0  0
 12 17  2  0  0  0  0
 17 18  1  0  0  0  0
 18 19  1  0  0  0  0
  1 20  1  0  0  0  0
  1 21  1  0  0  0  0
  1 22  1  0  0  0  0
  2 23  1  0  0  0  0
  2 24  1  0  0  0  0
  7 25  1  0  0  0  0
  7 26  1  0  0  0  0
  8 27  1  0  0  0  0
  8 28  1  0  0  0  0
  8 29  1  0  0  0  0
 10 30  1  0  0  0  0
 10 31  1  0  0  0  0
 15 32  1  0  0  0  0
 15 33  1  0  0  0  0
 16 34  1  0  0  0  0
 16 35  1  0  0  0  0
 16 36  1  0  0  0  0
 18 37  1  0  0  0  0
 18 38  1  0  0  0  0
 19 39  1  0  0  0  0
 19 40  1  0  0  0  0
 19 41  1  0  0  0  0
M  END
