 xtb: 6.7.1 (edcfbbe)
          04092505203D

 41 40  0     0  0            999 V2000
    2.3932   -2.7025   -1.7881 C   0  0  0  0  0  0  0  0  0  0  0  0
    3.5440   -2.2160   -0.9343 C   0  0  0  0  0  0  0  0  0  0  0  0
    3.5514   -0.7750   -0.7835 O   0  0  0  0  0  0  0  0  0  0  0  0
    2.4236    0.0936   -0.1064 P   0  0  0  0  0  0  0  0  0  0  0  0
    3.0995    1.8092    0.5419 S   0  0  0  0  0  0  0  0  0  0  0  0
    1.8348   -0.8843    1.0060 O   0  0  0  0  0  0  0  0  0  0  0  0
    1.3694   -0.4683    2.3018 C   0  0  0  0  0  0  0  0  0  0  0  0
    2.1537   -1.2087    3.3669 C   0  0  0  0  0  0  0  0  0  0  0  0
    0.9329    0.2439   -1.6295 S   0  0  0  0  0  0  0  0  0  0  0  0
    0.1811    1.7955   -1.0900 C   0  0  0  0  0  0  0  0  0  0  0  0
   -0.6509    1.6625    0.5169 S   0  0  0  0  0  0  0  0  0  0  0  0
   -2.0585    0.1910   -0.0592 P   0  0  0  0  0  0  0  0  0  0  0  0
   -2.7884    0.3002   -1.8783 S   0  0  0  0  0  0  0  0  0  0  0  0
   -3.1364    0.2118    1.1074 O   0  0  0  0  0  0  0  0  0  0  0  0
   -4.3124    1.0379    1.0590 C   0  0  0  0  0  0  0  0  0  0  0  0
   -3.9798    2.5116    1.1720 C   0  0  0  0  0  0  0  0  0  0  0  0
   -1.2380   -1.1166    0.3046 O   0  0  0  0  0  0  0  0  0  0  0  0
   -1.5268   -2.3951   -0.2976 C   0  0  0  0  0  0  0  0  0  0  0  0
   -2.8818   -2.9234    0.1230 C   0  0  0  0  0  0  0  0  0  0  0  0
    2.3975   -2.2023   -2.7536 H   0  0  0  0  0  0  0  0  0  0  0  0
    2.4869   -3.7735   -1.9382 H   0  0  0  0  0  0  0  0  0  0  0  0
    1.4463   -2.4935   -1.2938 H   0  0  0  0  0  0  0  0  0  0  0  0
    4.5084   -2.4199   -1.4018 H   0  0  0  0  0  0  0  0  0  0  0  0
    3.5089   -2.6637    0.0608 H   0  0  0  0  0  0  0  0  0  0  0  0
    1.5014    0.6144    2.4012 H   0  0  0  0  0  0  0  0  0  0  0  0
    0.3042   -0.7080    2.3442 H   0  0  0  0  0  0  0  0  0  0  0  0
    2.0495   -2.2818    3.2343 H   0  0  0  0  0  0  0  0  0  0  0  0
    3.2065   -0.9428    3.3046 H   0  0  0  0  0  0  0  0  0  0  0  0
    1.7742   -0.9288    4.3442 H   0  0  0  0  0  0  0  0  0  0  0  0
   -0.5429    2.0689   -1.8566 H   0  0  0  0  0  0  0  0  0  0  0  0
    0.9510    2.5581   -0.9745 H   0  0  0  0  0  0  0  0  0  0  0  0
   -4.8392    0.8345    0.1211 H   0  0  0  0  0  0  0  0  0  0  0  0
   -4.9097    0.6935    1.9042 H   0  0  0  0  0  0  0  0  0  0  0  0
   -4.8990    3.0832    1.2517 H   0  0  0  0  0  0  0  0  0  0  0  0
   -3.3625    2.6945    2.0481 H   0  0  0  0  0  0  0  0  0  0  0  0
   -3.4360    2.8403    0.2872 H   0  0  0  0  0  0  0  0  0  0  0  0
   -1.4725   -2.2842   -1.3856 H   0  0  0  0  0  0  0  0  0  0  0  0
   -0.7169   -3.0376    0.0520 H   0  0  0  0  0  0  0  0  0  0  0  0
   -3.0170   -3.9244   -0.2746 H   0  0  0  0  0  0  0  0  0  0  0  0
   -2.9569   -2.9492    1.2070 H   0  0  0  0  0  0  0  0  0  0  0  0
   -3.6672   -2.2783   -0.2693 H   0  0  0  0  0  0  0  0  0  0  0  0
  1  2  1  0  0  0  0
  2  3  1  0  0  0  0
  3  4  2  0  0  0  0
  4  5  2  0  0  0  0
  4  6  2  0  0  0  0
  6  7  1  0  0  0  0
  7  8  1  0  0  0  0
  4  9  1  0  0  0  0
  9 10  1  0  0  0  0
 10 11  1  0  0  0  0
 11 12  1  0  0  0  0
 12 13  2  0  0  0  0
 12 14  2  0  0  0  0
 14 15  1  0  0  0  0
 15 16  1  0  0  0  0
 12 17  2  0  0  0  0
 17 18  1  0  0  0  0
 18 19  1  0  0  0  0
  1 20  1  0  0  0  0
  1 21  1  0  0  0  0
  1 22  1  0  0  0  0
  2 23  1  0  0  0  0
  2 24  1  0  0  0  0
  7 25  1  0  0  0  0
  7 26  1  0  0  0  0
  8 27  1  0  0  0  0
  8 28  1  0  0  0  0
  8 29  1  0  0  0  0
 10 30  1  0  0  0  0
 10 31  1  0  0  0  0
 15 32  1  0  0  0  0
 15 33  1  0  0  0  0
 16 34  1  0  0  0  0
 16 35  1  0  0  0  0
 16 36  1  0  0  0  0
 18 37  1  0  0  0  0
 18 38  1  0  0  0  0
 19 39  1  0  0  0  0
 19 40  1  0  0  0  0
 19 41  1  0  0  0  0
M  END
