 xtb: 6.7.1 (edcfbbe)
          04092505213D

 41 40  0     0  0            999 V2000
    4.0267    0.0030   -2.9141 C   0  0  0  0  0  0  0  0  0  0  0  0
    4.7973   -0.5933   -1.7526 C   0  0  0  0  0  0  0  0  0  0  0  0
    3.9483   -1.3536   -0.8764 O   0  0  0  0  0  0  0  0  0  0  0  0
    2.8830   -0.6610    0.0635 P   0  0  0  0  0  0  0  0  0  0  0  0
    3.4396    1.0833    0.7841 S   0  0  0  0  0  0  0  0  0  0  0  0
    2.7583   -1.8797    1.0654 O   0  0  0  0  0  0  0  0  0  0  0  0
    1.6600   -2.0924    1.9680 C   0  0  0  0  0  0  0  0  0  0  0  0
    1.6608   -1.1060    3.1193 C   0  0  0  0  0  0  0  0  0  0  0  0
    1.0618   -0.6534   -1.0531 S   0  0  0  0  0  0  0  0  0  0  0  0
    0.3610    0.9049   -0.4467 C   0  0  0  0  0  0  0  0  0  0  0  0
   -0.7289    0.6932    0.9944 S   0  0  0  0  0  0  0  0  0  0  0  0
   -2.6032    0.7286    0.0133 P   0  0  0  0  0  0  0  0  0  0  0  0
   -2.6180    0.7991   -1.9509 S   0  0  0  0  0  0  0  0  0  0  0  0
   -3.2079    1.9912    0.7536 O   0  0  0  0  0  0  0  0  0  0  0  0
   -4.3495    2.7126    0.2469 C   0  0  0  0  0  0  0  0  0  0  0  0
   -5.6194    1.8895    0.3072 C   0  0  0  0  0  0  0  0  0  0  0  0
   -3.4526   -0.4571    0.6490 O   0  0  0  0  0  0  0  0  0  0  0  0
   -3.4826   -1.7758    0.0795 C   0  0  0  0  0  0  0  0  0  0  0  0
   -2.1592   -2.4955    0.2438 C   0  0  0  0  0  0  0  0  0  0  0  0
    3.3457    0.7732   -2.5544 H   0  0  0  0  0  0  0  0  0  0  0  0
    4.7230    0.4510   -3.6158 H   0  0  0  0  0  0  0  0  0  0  0  0
    3.4501   -0.7678   -3.4192 H   0  0  0  0  0  0  0  0  0  0  0  0
    5.2875    0.1943   -1.1705 H   0  0  0  0  0  0  0  0  0  0  0  0
    5.5389   -1.3176   -2.0922 H   0  0  0  0  0  0  0  0  0  0  0  0
    0.7222   -2.0314    1.4070 H   0  0  0  0  0  0  0  0  0  0  0  0
    1.8114   -3.1145    2.3195 H   0  0  0  0  0  0  0  0  0  0  0  0
    2.6261   -1.1127    3.6188 H   0  0  0  0  0  0  0  0  0  0  0  0
    1.4610   -0.0985    2.7574 H   0  0  0  0  0  0  0  0  0  0  0  0
    0.8861   -1.3800    3.8280 H   0  0  0  0  0  0  0  0  0  0  0  0
   -0.2138    1.3334   -1.2675 H   0  0  0  0  0  0  0  0  0  0  0  0
    1.1800    1.5589   -0.1409 H   0  0  0  0  0  0  0  0  0  0  0  0
   -4.4061    3.5918    0.8902 H   0  0  0  0  0  0  0  0  0  0  0  0
   -4.1357    3.0179   -0.7825 H   0  0  0  0  0  0  0  0  0  0  0  0
   -5.7677    1.5019    1.3116 H   0  0  0  0  0  0  0  0  0  0  0  0
   -6.4643    2.5126    0.0305 H   0  0  0  0  0  0  0  0  0  0  0  0
   -5.5546    1.0534   -0.3876 H   0  0  0  0  0  0  0  0  0  0  0  0
   -4.2840   -2.2789    0.6223 H   0  0  0  0  0  0  0  0  0  0  0  0
   -3.7449   -1.6914   -0.9802 H   0  0  0  0  0  0  0  0  0  0  0  0
   -1.8531   -2.4806    1.2872 H   0  0  0  0  0  0  0  0  0  0  0  0
   -2.2645   -3.5240   -0.0862 H   0  0  0  0  0  0  0  0  0  0  0  0
   -1.3932   -2.0117   -0.3629 H   0  0  0  0  0  0  0  0  0  0  0  0
  1  2  1  0  0  0  0
  2  3  1  0  0  0  0
  3  4  2  0  0  0  0
  4  5  2  0  0  0  0
  4  6  2  0  0  0  0
  6  7  1  0  0  0  0
  7  8  1  0  0  0  0
  4  9  1  0  0  0  0
  9 10  1  0  0  0  0
 10 11  1  0  0  0  0
 11 12  1  0  0  0  0
 12 13  2  0  0  0  0
 12 14  2  0  0  0  0
 14 15  1  0  0  0  0
 15 16  1  0  0  0  0
 12 17  2  0  0  0  0
 17 18  1  0  0  0  0
 18 19  1  0  0  0  0
  1 20  1  0  0  0  0
  1 21  1  0  0  0  0
  1 22  1  0  0  0  0
  2 23  1  0  0  0  0
  2 24  1  0  0  0  0
  7 25  1  0  0  0  0
  7 26  1  0  0  0  0
  8 27  1  0  0  0  0
  8 28  1  0  0  0  0
  8 29  1  0  0  0  0
 10 30  1  0  0  0  0
 10 31  1  0  0  0  0
 15 32  1  0  0  0  0
 15 33  1  0  0  0  0
 16 34  1  0  0  0  0
 16 35  1  0  0  0  0
 16 36  1  0  0  0  0
 18 37  1  0  0  0  0
 18 38  1  0  0  0  0
 19 39  1  0  0  0  0
 19 40  1  0  0  0  0
 19 41  1  0  0  0  0
M  END
