 xtb: 6.7.1 (edcfbbe)
          04092514013D

 41 40  0     0  0            999 V2000
    5.8465    0.3363   -1.2603 C   0  0  0  0  0  0  0  0  0  0  0  0
    4.3770    0.0303   -1.4748 C   0  0  0  0  0  0  0  0  0  0  0  0
    3.7282    0.0424   -0.1853 O   0  0  0  0  0  0  0  0  0  0  0  0
    2.1541    0.1846   -0.0241 P   0  0  0  0  0  0  0  0  0  0  0  0
    1.3171    1.7306   -0.8834 S   0  0  0  0  0  0  0  0  0  0  0  0
    1.9695    0.2143    1.5374 O   0  0  0  0  0  0  0  0  0  0  0  0
    2.5243   -0.7856    2.4319 C   0  0  0  0  0  0  0  0  0  0  0  0
    3.7684   -0.2587    3.1172 C   0  0  0  0  0  0  0  0  0  0  0  0
    1.4582   -1.7173   -0.7049 S   0  0  0  0  0  0  0  0  0  0  0  0
   -0.2593   -1.2796   -1.0018 C   0  0  0  0  0  0  0  0  0  0  0  0
   -1.1434   -0.9936    0.5787 S   0  0  0  0  0  0  0  0  0  0  0  0
   -2.7321    0.2516   -0.0923 P   0  0  0  0  0  0  0  0  0  0  0  0
   -2.5930    0.8773   -1.9489 S   0  0  0  0  0  0  0  0  0  0  0  0
   -2.8655    1.3687    1.0227 O   0  0  0  0  0  0  0  0  0  0  0  0
   -1.9373    2.4651    1.1281 C   0  0  0  0  0  0  0  0  0  0  0  0
   -1.0214    2.2858    2.3229 C   0  0  0  0  0  0  0  0  0  0  0  0
   -4.0702   -0.5002    0.2925 O   0  0  0  0  0  0  0  0  0  0  0  0
   -4.8033   -1.3153   -0.6398 C   0  0  0  0  0  0  0  0  0  0  0  0
   -4.0815   -2.6105   -0.9544 C   0  0  0  0  0  0  0  0  0  0  0  0
    5.9608    1.3058   -0.7833 H   0  0  0  0  0  0  0  0  0  0  0  0
    6.3004   -0.4234   -0.6307 H   0  0  0  0  0  0  0  0  0  0  0  0
    6.3504    0.3515   -2.2214 H   0  0  0  0  0  0  0  0  0  0  0  0
    4.2362   -0.9586   -1.9192 H   0  0  0  0  0  0  0  0  0  0  0  0
    3.9020    0.7823   -2.1128 H   0  0  0  0  0  0  0  0  0  0  0  0
    1.7265   -0.9832    3.1502 H   0  0  0  0  0  0  0  0  0  0  0  0
    2.7390   -1.6927    1.8611 H   0  0  0  0  0  0  0  0  0  0  0  0
    4.5524   -0.0703    2.3887 H   0  0  0  0  0  0  0  0  0  0  0  0
    3.5449    0.6671    3.6400 H   0  0  0  0  0  0  0  0  0  0  0  0
    4.1143   -0.9982    3.8332 H   0  0  0  0  0  0  0  0  0  0  0  0
   -0.7022   -2.1259   -1.5213 H   0  0  0  0  0  0  0  0  0  0  0  0
   -0.3156   -0.3695   -1.6051 H   0  0  0  0  0  0  0  0  0  0  0  0
   -1.3618    2.5509    0.1993 H   0  0  0  0  0  0  0  0  0  0  0  0
   -2.5607    3.3546    1.2416 H   0  0  0  0  0  0  0  0  0  0  0  0
   -0.3867    3.1621    2.4101 H   0  0  0  0  0  0  0  0  0  0  0  0
   -1.6090    2.1688    3.2288 H   0  0  0  0  0  0  0  0  0  0  0  0
   -0.3883    1.4104    2.1931 H   0  0  0  0  0  0  0  0  0  0  0  0
   -5.7539   -1.4976   -0.1362 H   0  0  0  0  0  0  0  0  0  0  0  0
   -4.9728   -0.7365   -1.5534 H   0  0  0  0  0  0  0  0  0  0  0  0
   -3.1679   -2.3969   -1.5081 H   0  0  0  0  0  0  0  0  0  0  0  0
   -3.8287   -3.1358   -0.0369 H   0  0  0  0  0  0  0  0  0  0  0  0
   -4.7218   -3.2391   -1.5654 H   0  0  0  0  0  0  0  0  0  0  0  0
  1  2  1  0  0  0  0
  2  3  1  0  0  0  0
  3  4  2  0  0  0  0
  4  5  2  0  0  0  0
  4  6  2  0  0  0  0
  6  7  1  0  0  0  0
  7  8  1  0  0  0  0
  4  9  1  0  0  0  0
  9 10  1  0  0  0  0
 10 11  1  0  0  0  0
 11 12  1  0  0  0  0
 12 13  2  0  0  0  0
 12 14  2  0  0  0  0
 14 15  1  0  0  0  0
 15 16  1  0  0  0  0
 12 17  2  0  0  0  0
 17 18  1  0  0  0  0
 18 19  1  0  0  0  0
  1 20  1  0  0  0  0
  1 21  1  0  0  0  0
  1 22  1  0  0  0  0
  2 23  1  0  0  0  0
  2 24  1  0  0  0  0
  7 25  1  0  0  0  0
  7 26  1  0  0  0  0
  8 27  1  0  0  0  0
  8 28  1  0  0  0  0
  8 29  1  0  0  0  0
 10 30  1  0  0  0  0
 10 31  1  0  0  0  0
 15 32  1  0  0  0  0
 15 33  1  0  0  0  0
 16 34  1  0  0  0  0
 16 35  1  0  0  0  0
 16 36  1  0  0  0  0
 18 37  1  0  0  0  0
 18 38  1  0  0  0  0
 19 39  1  0  0  0  0
 19 40  1  0  0  0  0
 19 41  1  0  0  0  0
M  END
