 xtb: 6.7.1 (edcfbbe)
          04032520303D

 10  9  0     0  0            999 V2000
    1.8568    0.2884    0.0552 C   0  0  0  0  0  0  0  0  0  0  0  0
    0.5736   -0.5337   -0.0192 C   0  0  0  0  0  0  0  0  0  0  0  0
   -0.6490    0.3180   -0.0336 C   0  0  0  0  0  0  0  0  0  0  0  0
   -1.7076    0.0379    0.4773 O   0  0  0  0  0  0  0  0  0  0  0  0
    2.7208   -0.3669    0.0016 H   0  0  0  0  0  0  0  0  0  0  0  0
    1.9013    0.8410    0.9901 H   0  0  0  0  0  0  0  0  0  0  0  0
    1.9062    0.9960   -0.7682 H   0  0  0  0  0  0  0  0  0  0  0  0
    0.5581   -1.0946   -0.9591 H   0  0  0  0  0  0  0  0  0  0  0  0
    0.5067   -1.2538    0.7974 H   0  0  0  0  0  0  0  0  0  0  0  0
   -0.5359    1.2718   -0.5815 H   0  0  0  0  0  0  0  0  0  0  0  0
  1  2  1  0  0  0  0
  2  3  1  0  0  0  0
  3  4  2  0  0  0  0
  1  5  1  0  0  0  0
  1  6  1  0  0  0  0
  1  7  1  0  0  0  0
  2  8  1  0  0  0  0
  2  9  1  0  0  0  0
  3 10  1  0  0  0  0
M  END
