 xtb: 6.7.1 (edcfbbe)
          04092505213D

 41 40  0     0  0            999 V2000
    4.4551   -1.0822   -2.4430 C   0  0  0  0  0  0  0  0  0  0  0  0
    3.9845   -1.9842   -1.3219 C   0  0  0  0  0  0  0  0  0  0  0  0
    3.7376   -1.2663   -0.0982 O   0  0  0  0  0  0  0  0  0  0  0  0
    2.7554   -0.0307    0.0560 P   0  0  0  0  0  0  0  0  0  0  0  0
    3.3365    1.7406   -0.5532 S   0  0  0  0  0  0  0  0  0  0  0  0
    2.5482    0.0319    1.6148 O   0  0  0  0  0  0  0  0  0  0  0  0
    2.4410   -1.0863    2.5312 C   0  0  0  0  0  0  0  0  0  0  0  0
    1.0361   -1.6519    2.5639 C   0  0  0  0  0  0  0  0  0  0  0  0
    0.9601   -0.7112   -0.8935 S   0  0  0  0  0  0  0  0  0  0  0  0
    0.0871    0.8636   -0.8106 C   0  0  0  0  0  0  0  0  0  0  0  0
   -0.9170    1.0297    0.6829 S   0  0  0  0  0  0  0  0  0  0  0  0
   -2.7425    0.3727   -0.2190 P   0  0  0  0  0  0  0  0  0  0  0  0
   -3.1355    1.1606   -1.9677 S   0  0  0  0  0  0  0  0  0  0  0  0
   -3.7985    0.5269    0.9567 O   0  0  0  0  0  0  0  0  0  0  0  0
   -3.9971    1.7109    1.7515 C   0  0  0  0  0  0  0  0  0  0  0  0
   -4.2675    2.9412    0.9114 C   0  0  0  0  0  0  0  0  0  0  0  0
   -2.6531   -1.1888   -0.3738 O   0  0  0  0  0  0  0  0  0  0  0  0
   -2.4152   -2.1012    0.7307 C   0  0  0  0  0  0  0  0  0  0  0  0
   -1.7040   -3.3193    0.1790 C   0  0  0  0  0  0  0  0  0  0  0  0
    4.7054   -1.6841   -3.3106 H   0  0  0  0  0  0  0  0  0  0  0  0
    3.6699   -0.3780   -2.7152 H   0  0  0  0  0  0  0  0  0  0  0  0
    5.3298   -0.5152   -2.1330 H   0  0  0  0  0  0  0  0  0  0  0  0
    4.7526   -2.7078   -1.0435 H   0  0  0  0  0  0  0  0  0  0  0  0
    3.0655   -2.5046   -1.6044 H   0  0  0  0  0  0  0  0  0  0  0  0
    3.1719   -1.8443    2.2460 H   0  0  0  0  0  0  0  0  0  0  0  0
    2.7157   -0.6477    3.4919 H   0  0  0  0  0  0  0  0  0  0  0  0
    0.3228   -0.8517    2.7485 H   0  0  0  0  0  0  0  0  0  0  0  0
    0.7968   -2.1349    1.6199 H   0  0  0  0  0  0  0  0  0  0  0  0
    0.9683   -2.3833    3.3630 H   0  0  0  0  0  0  0  0  0  0  0  0
   -0.5698    0.9358   -1.6800 H   0  0  0  0  0  0  0  0  0  0  0  0
    0.8261    1.6683   -0.8147 H   0  0  0  0  0  0  0  0  0  0  0  0
   -4.8547    1.4581    2.3774 H   0  0  0  0  0  0  0  0  0  0  0  0
   -3.1102    1.8559    2.3745 H   0  0  0  0  0  0  0  0  0  0  0  0
   -4.4898    3.7816    1.5610 H   0  0  0  0  0  0  0  0  0  0  0  0
   -3.3948    3.1829    0.3057 H   0  0  0  0  0  0  0  0  0  0  0  0
   -5.1089    2.7684    0.2444 H   0  0  0  0  0  0  0  0  0  0  0  0
   -1.8127   -1.5901    1.4865 H   0  0  0  0  0  0  0  0  0  0  0  0
   -3.3870   -2.3576    1.1556 H   0  0  0  0  0  0  0  0  0  0  0  0
   -1.5108   -4.0167    0.9876 H   0  0  0  0  0  0  0  0  0  0  0  0
   -2.3217   -3.8007   -0.5734 H   0  0  0  0  0  0  0  0  0  0  0  0
   -0.7646   -3.0260   -0.2839 H   0  0  0  0  0  0  0  0  0  0  0  0
  1  2  1  0  0  0  0
  2  3  1  0  0  0  0
  3  4  2  0  0  0  0
  4  5  2  0  0  0  0
  4  6  2  0  0  0  0
  6  7  1  0  0  0  0
  7  8  1  0  0  0  0
  4  9  1  0  0  0  0
  9 10  1  0  0  0  0
 10 11  1  0  0  0  0
 11 12  1  0  0  0  0
 12 13  2  0  0  0  0
 12 14  2  0  0  0  0
 14 15  1  0  0  0  0
 15 16  1  0  0  0  0
 12 17  2  0  0  0  0
 17 18  1  0  0  0  0
 18 19  1  0  0  0  0
  1 20  1  0  0  0  0
  1 21  1  0  0  0  0
  1 22  1  0  0  0  0
  2 23  1  0  0  0  0
  2 24  1  0  0  0  0
  7 25  1  0  0  0  0
  7 26  1  0  0  0  0
  8 27  1  0  0  0  0
  8 28  1  0  0  0  0
  8 29  1  0  0  0  0
 10 30  1  0  0  0  0
 10 31  1  0  0  0  0
 15 32  1  0  0  0  0
 15 33  1  0  0  0  0
 16 34  1  0  0  0  0
 16 35  1  0  0  0  0
 16 36  1  0  0  0  0
 18 37  1  0  0  0  0
 18 38  1  0  0  0  0
 19 39  1  0  0  0  0
 19 40  1  0  0  0  0
 19 41  1  0  0  0  0
M  END
