 xtb: 6.7.1 (edcfbbe)
          04092514033D

 41 40  0     0  0            999 V2000
    2.4088   -0.8102    3.5081 C   0  0  0  0  0  0  0  0  0  0  0  0
    1.2759   -0.8633    2.5035 C   0  0  0  0  0  0  0  0  0  0  0  0
    1.4543    0.1373    1.4860 O   0  0  0  0  0  0  0  0  0  0  0  0
    2.2332   -0.1001    0.1265 P   0  0  0  0  0  0  0  0  0  0  0  0
    2.8297   -1.9449   -0.1798 S   0  0  0  0  0  0  0  0  0  0  0  0
    3.3390    1.0243    0.2869 O   0  0  0  0  0  0  0  0  0  0  0  0
    4.0748    1.6530   -0.7799 C   0  0  0  0  0  0  0  0  0  0  0  0
    4.8792    0.6707   -1.6074 C   0  0  0  0  0  0  0  0  0  0  0  0
    0.9260    0.7231   -1.3343 S   0  0  0  0  0  0  0  0  0  0  0  0
    0.0458   -0.8071   -1.7434 C   0  0  0  0  0  0  0  0  0  0  0  0
   -0.8832   -1.5053   -0.3535 S   0  0  0  0  0  0  0  0  0  0  0  0
   -2.2425    0.1113   -0.0972 P   0  0  0  0  0  0  0  0  0  0  0  0
   -2.7842    1.0560   -1.7304 S   0  0  0  0  0  0  0  0  0  0  0  0
   -1.5450    1.0147    1.0017 O   0  0  0  0  0  0  0  0  0  0  0  0
   -1.3424    2.4331    0.8792 C   0  0  0  0  0  0  0  0  0  0  0  0
   -2.4938    3.1900    1.5095 C   0  0  0  0  0  0  0  0  0  0  0  0
   -3.3762   -0.5208    0.8117 O   0  0  0  0  0  0  0  0  0  0  0  0
   -4.0706   -1.7591    0.5686 C   0  0  0  0  0  0  0  0  0  0  0  0
   -4.8199   -1.7716   -0.7486 C   0  0  0  0  0  0  0  0  0  0  0  0
    3.3480   -1.0595    3.0169 H   0  0  0  0  0  0  0  0  0  0  0  0
    2.4885    0.1862    3.9337 H   0  0  0  0  0  0  0  0  0  0  0  0
    2.2199   -1.5284    4.2998 H   0  0  0  0  0  0  0  0  0  0  0  0
    0.3137   -0.6229    2.9600 H   0  0  0  0  0  0  0  0  0  0  0  0
    1.2210   -1.8504    2.0315 H   0  0  0  0  0  0  0  0  0  0  0  0
    3.3682    2.2019   -1.4090 H   0  0  0  0  0  0  0  0  0  0  0  0
    4.7262    2.3563   -0.2576 H   0  0  0  0  0  0  0  0  0  0  0  0
    5.4766    1.2191   -2.3292 H   0  0  0  0  0  0  0  0  0  0  0  0
    5.5364    0.0841   -0.9701 H   0  0  0  0  0  0  0  0  0  0  0  0
    4.2170   -0.0097   -2.1403 H   0  0  0  0  0  0  0  0  0  0  0  0
    0.7601   -1.5731   -2.0438 H   0  0  0  0  0  0  0  0  0  0  0  0
   -0.6378   -0.5541   -2.5533 H   0  0  0  0  0  0  0  0  0  0  0  0
   -0.3985    2.6238    1.3937 H   0  0  0  0  0  0  0  0  0  0  0  0
   -1.2407    2.6931   -0.1802 H   0  0  0  0  0  0  0  0  0  0  0  0
   -2.6204    2.8885    2.5455 H   0  0  0  0  0  0  0  0  0  0  0  0
   -2.2896    4.2552    1.4643 H   0  0  0  0  0  0  0  0  0  0  0  0
   -3.4137    2.9798    0.9664 H   0  0  0  0  0  0  0  0  0  0  0  0
   -3.3443   -2.5759    0.6091 H   0  0  0  0  0  0  0  0  0  0  0  0
   -4.7567   -1.8344    1.4144 H   0  0  0  0  0  0  0  0  0  0  0  0
   -5.4956   -0.9219   -0.8104 H   0  0  0  0  0  0  0  0  0  0  0  0
   -4.1230   -1.7204   -1.5835 H   0  0  0  0  0  0  0  0  0  0  0  0
   -5.3931   -2.6906   -0.8233 H   0  0  0  0  0  0  0  0  0  0  0  0
  1  2  1  0  0  0  0
  2  3  1  0  0  0  0
  3  4  2  0  0  0  0
  4  5  2  0  0  0  0
  4  6  2  0  0  0  0
  6  7  1  0  0  0  0
  7  8  1  0  0  0  0
  4  9  1  0  0  0  0
  9 10  1  0  0  0  0
 10 11  1  0  0  0  0
 11 12  1  0  0  0  0
 12 13  2  0  0  0  0
 12 14  2  0  0  0  0
 14 15  1  0  0  0  0
 15 16  1  0  0  0  0
 12 17  2  0  0  0  0
 17 18  1  0  0  0  0
 18 19  1  0  0  0  0
  1 20  1  0  0  0  0
  1 21  1  0  0  0  0
  1 22  1  0  0  0  0
  2 23  1  0  0  0  0
  2 24  1  0  0  0  0
  7 25  1  0  0  0  0
  7 26  1  0  0  0  0
  8 27  1  0  0  0  0
  8 28  1  0  0  0  0
  8 29  1  0  0  0  0
 10 30  1  0  0  0  0
 10 31  1  0  0  0  0
 15 32  1  0  0  0  0
 15 33  1  0  0  0  0
 16 34  1  0  0  0  0
 16 35  1  0  0  0  0
 16 36  1  0  0  0  0
 18 37  1  0  0  0  0
 18 38  1  0  0  0  0
 19 39  1  0  0  0  0
 19 40  1  0  0  0  0
 19 41  1  0  0  0  0
M  END
