 xtb: 6.7.1 (edcfbbe)
          04092505203D

 41 40  0     0  0            999 V2000
    2.2112    1.9857   -1.6073 C   0  0  0  0  0  0  0  0  0  0  0  0
    2.5276    2.3249   -0.1653 C   0  0  0  0  0  0  0  0  0  0  0  0
    1.8507    1.4568    0.7781 O   0  0  0  0  0  0  0  0  0  0  0  0
    2.0914   -0.0979    0.9212 P   0  0  0  0  0  0  0  0  0  0  0  0
    1.5624   -0.7170    2.7006 S   0  0  0  0  0  0  0  0  0  0  0  0
    3.6261   -0.2061    0.5170 O   0  0  0  0  0  0  0  0  0  0  0  0
    4.3277   -1.4507    0.3420 C   0  0  0  0  0  0  0  0  0  0  0  0
    4.7775   -2.0386    1.6650 C   0  0  0  0  0  0  0  0  0  0  0  0
    1.0949   -1.0704   -0.7044 S   0  0  0  0  0  0  0  0  0  0  0  0
   -0.2202   -1.9178    0.2004 C   0  0  0  0  0  0  0  0  0  0  0  0
   -1.4636   -0.8131    0.9179 S   0  0  0  0  0  0  0  0  0  0  0  0
   -2.0641    0.1641   -0.8868 P   0  0  0  0  0  0  0  0  0  0  0  0
   -1.8363   -0.8181   -2.5600 S   0  0  0  0  0  0  0  0  0  0  0  0
   -1.2497    1.5188   -0.9308 O   0  0  0  0  0  0  0  0  0  0  0  0
   -1.3545    2.5225    0.1078 C   0  0  0  0  0  0  0  0  0  0  0  0
   -2.2118    3.6777   -0.3654 C   0  0  0  0  0  0  0  0  0  0  0  0
   -3.5196    0.6904   -0.5218 O   0  0  0  0  0  0  0  0  0  0  0  0
   -4.5905   -0.1162    0.0029 C   0  0  0  0  0  0  0  0  0  0  0  0
   -4.8709   -1.3439   -0.8376 C   0  0  0  0  0  0  0  0  0  0  0  0
    2.6510    2.7395   -2.2530 H   0  0  0  0  0  0  0  0  0  0  0  0
    2.6232    1.0128   -1.8703 H   0  0  0  0  0  0  0  0  0  0  0  0
    1.1362    1.9586   -1.7739 H   0  0  0  0  0  0  0  0  0  0  0  0
    2.1657    3.3191    0.1032 H   0  0  0  0  0  0  0  0  0  0  0  0
    3.6004    2.2605    0.0232 H   0  0  0  0  0  0  0  0  0  0  0  0
    3.6832   -2.1475   -0.2020 H   0  0  0  0  0  0  0  0  0  0  0  0
    5.1835   -1.1842   -0.2816 H   0  0  0  0  0  0  0  0  0  0  0  0
    3.9184   -2.2950    2.2808 H   0  0  0  0  0  0  0  0  0  0  0  0
    5.3603   -2.9346    1.4774 H   0  0  0  0  0  0  0  0  0  0  0  0
    5.3872   -1.3202    2.2063 H   0  0  0  0  0  0  0  0  0  0  0  0
    0.1984   -2.4718    1.0395 H   0  0  0  0  0  0  0  0  0  0  0  0
   -0.6939   -2.5766   -0.5259 H   0  0  0  0  0  0  0  0  0  0  0  0
   -1.7664    2.0624    1.0109 H   0  0  0  0  0  0  0  0  0  0  0  0
   -0.3291    2.8380    0.3074 H   0  0  0  0  0  0  0  0  0  0  0  0
   -3.2232    3.3342   -0.5665 H   0  0  0  0  0  0  0  0  0  0  0  0
   -2.2370    4.4413    0.4057 H   0  0  0  0  0  0  0  0  0  0  0  0
   -1.7978    4.0985   -1.2774 H   0  0  0  0  0  0  0  0  0  0  0  0
   -4.3332   -0.3994    1.0275 H   0  0  0  0  0  0  0  0  0  0  0  0
   -5.4439    0.5643    0.0103 H   0  0  0  0  0  0  0  0  0  0  0  0
   -4.0186   -2.0212   -0.8102 H   0  0  0  0  0  0  0  0  0  0  0  0
   -5.7434   -1.8567   -0.4458 H   0  0  0  0  0  0  0  0  0  0  0  0
   -5.0508   -1.0625   -1.8725 H   0  0  0  0  0  0  0  0  0  0  0  0
  1  2  1  0  0  0  0
  2  3  1  0  0  0  0
  3  4  2  0  0  0  0
  4  5  2  0  0  0  0
  4  6  2  0  0  0  0
  6  7  1  0  0  0  0
  7  8  1  0  0  0  0
  4  9  1  0  0  0  0
  9 10  1  0  0  0  0
 10 11  1  0  0  0  0
 11 12  1  0  0  0  0
 12 13  2  0  0  0  0
 12 14  2  0  0  0  0
 14 15  1  0  0  0  0
 15 16  1  0  0  0  0
 12 17  2  0  0  0  0
 17 18  1  0  0  0  0
 18 19  1  0  0  0  0
  1 20  1  0  0  0  0
  1 21  1  0  0  0  0
  1 22  1  0  0  0  0
  2 23  1  0  0  0  0
  2 24  1  0  0  0  0
  7 25  1  0  0  0  0
  7 26  1  0  0  0  0
  8 27  1  0  0  0  0
  8 28  1  0  0  0  0
  8 29  1  0  0  0  0
 10 30  1  0  0  0  0
 10 31  1  0  0  0  0
 15 32  1  0  0  0  0
 15 33  1  0  0  0  0
 16 34  1  0  0  0  0
 16 35  1  0  0  0  0
 16 36  1  0  0  0  0
 18 37  1  0  0  0  0
 18 38  1  0  0  0  0
 19 39  1  0  0  0  0
 19 40  1  0  0  0  0
 19 41  1  0  0  0  0
M  END
