 xtb: 6.7.1 (edcfbbe)
          04092505213D

 41 40  0     0  0            999 V2000
    2.3659    0.5183   -2.9008 C   0  0  0  0  0  0  0  0  0  0  0  0
    1.7510   -0.8233   -2.5564 C   0  0  0  0  0  0  0  0  0  0  0  0
    1.2133   -0.8481   -1.2227 O   0  0  0  0  0  0  0  0  0  0  0  0
    2.1713   -0.8933    0.0443 P   0  0  0  0  0  0  0  0  0  0  0  0
    3.9092   -1.7631   -0.1902 S   0  0  0  0  0  0  0  0  0  0  0  0
    1.1642   -1.6581    1.0043 O   0  0  0  0  0  0  0  0  0  0  0  0
    1.5901   -2.2624    2.2375 C   0  0  0  0  0  0  0  0  0  0  0  0
    1.8343   -1.2306    3.3213 C   0  0  0  0  0  0  0  0  0  0  0  0
    2.2633    1.1165    0.7440 S   0  0  0  0  0  0  0  0  0  0  0  0
    0.6022    1.7164    0.3361 C   0  0  0  0  0  0  0  0  0  0  0  0
   -0.7353    0.7738    1.1295 S   0  0  0  0  0  0  0  0  0  0  0  0
   -2.1542    0.9006   -0.4570 P   0  0  0  0  0  0  0  0  0  0  0  0
   -1.4012    0.9825   -2.2628 S   0  0  0  0  0  0  0  0  0  0  0  0
   -3.0155    2.1946   -0.1674 O   0  0  0  0  0  0  0  0  0  0  0  0
   -4.1142    2.2967    0.7698 C   0  0  0  0  0  0  0  0  0  0  0  0
   -3.6996    2.0066    2.1967 C   0  0  0  0  0  0  0  0  0  0  0  0
   -3.1978   -0.2686   -0.1919 O   0  0  0  0  0  0  0  0  0  0  0  0
   -3.0378   -1.5932   -0.7262 C   0  0  0  0  0  0  0  0  0  0  0  0
   -2.0427   -2.4113    0.0707 C   0  0  0  0  0  0  0  0  0  0  0  0
    3.1768    0.7461   -2.2089 H   0  0  0  0  0  0  0  0  0  0  0  0
    2.7645    0.4780   -3.9094 H   0  0  0  0  0  0  0  0  0  0  0  0
    1.6149    1.3035   -2.8516 H   0  0  0  0  0  0  0  0  0  0  0  0
    2.4952   -1.6209   -2.6433 H   0  0  0  0  0  0  0  0  0  0  0  0
    0.8908   -1.0382   -3.1922 H   0  0  0  0  0  0  0  0  0  0  0  0
    0.7672   -2.9295    2.4984 H   0  0  0  0  0  0  0  0  0  0  0  0
    2.4952   -2.8477    2.0439 H   0  0  0  0  0  0  0  0  0  0  0  0
    2.0119   -1.7379    4.2640 H   0  0  0  0  0  0  0  0  0  0  0  0
    2.7057   -0.6251    3.0762 H   0  0  0  0  0  0  0  0  0  0  0  0
    0.9687   -0.5790    3.4180 H   0  0  0  0  0  0  0  0  0  0  0  0
    0.4478    1.6753   -0.7443 H   0  0  0  0  0  0  0  0  0  0  0  0
    0.5840    2.7417    0.6980 H   0  0  0  0  0  0  0  0  0  0  0  0
   -4.4467    3.3289    0.6489 H   0  0  0  0  0  0  0  0  0  0  0  0
   -4.9009    1.6128    0.4459 H   0  0  0  0  0  0  0  0  0  0  0  0
   -2.8830    2.6574    2.4981 H   0  0  0  0  0  0  0  0  0  0  0  0
   -4.5496    2.1752    2.8507 H   0  0  0  0  0  0  0  0  0  0  0  0
   -3.3774    0.9717    2.2938 H   0  0  0  0  0  0  0  0  0  0  0  0
   -4.0405   -2.0207   -0.6707 H   0  0  0  0  0  0  0  0  0  0  0  0
   -2.7279   -1.5134   -1.7734 H   0  0  0  0  0  0  0  0  0  0  0  0
   -2.0554   -3.4359   -0.2874 H   0  0  0  0  0  0  0  0  0  0  0  0
   -1.0372   -2.0122   -0.0490 H   0  0  0  0  0  0  0  0  0  0  0  0
   -2.3029   -2.3962    1.1259 H   0  0  0  0  0  0  0  0  0  0  0  0
  1  2  1  0  0  0  0
  2  3  1  0  0  0  0
  3  4  2  0  0  0  0
  4  5  2  0  0  0  0
  4  6  2  0  0  0  0
  6  7  1  0  0  0  0
  7  8  1  0  0  0  0
  4  9  1  0  0  0  0
  9 10  1  0  0  0  0
 10 11  1  0  0  0  0
 11 12  1  0  0  0  0
 12 13  2  0  0  0  0
 12 14  2  0  0  0  0
 14 15  1  0  0  0  0
 15 16  1  0  0  0  0
 12 17  2  0  0  0  0
 17 18  1  0  0  0  0
 18 19  1  0  0  0  0
  1 20  1  0  0  0  0
  1 21  1  0  0  0  0
  1 22  1  0  0  0  0
  2 23  1  0  0  0  0
  2 24  1  0  0  0  0
  7 25  1  0  0  0  0
  7 26  1  0  0  0  0
  8 27  1  0  0  0  0
  8 28  1  0  0  0  0
  8 29  1  0  0  0  0
 10 30  1  0  0  0  0
 10 31  1  0  0  0  0
 15 32  1  0  0  0  0
 15 33  1  0  0  0  0
 16 34  1  0  0  0  0
 16 35  1  0  0  0  0
 16 36  1  0  0  0  0
 18 37  1  0  0  0  0
 18 38  1  0  0  0  0
 19 39  1  0  0  0  0
 19 40  1  0  0  0  0
 19 41  1  0  0  0  0
M  END
