 xtb: 6.7.1 (edcfbbe)
          04092505203D

 41 40  0     0  0            999 V2000
    3.6605    1.9984    1.3671 C   0  0  0  0  0  0  0  0  0  0  0  0
    2.6224    1.7036    0.3051 C   0  0  0  0  0  0  0  0  0  0  0  0
    1.6477    0.7442    0.7916 O   0  0  0  0  0  0  0  0  0  0  0  0
    1.7322   -0.8026    0.5249 P   0  0  0  0  0  0  0  0  0  0  0  0
    0.2472   -1.7833    1.3372 S   0  0  0  0  0  0  0  0  0  0  0  0
    3.1745   -1.1832    1.0658 O   0  0  0  0  0  0  0  0  0  0  0  0
    3.6370   -2.5504    1.0564 C   0  0  0  0  0  0  0  0  0  0  0  0
    4.8707   -2.6285    1.9321 C   0  0  0  0  0  0  0  0  0  0  0  0
    1.9594   -1.0756   -1.5729 S   0  0  0  0  0  0  0  0  0  0  0  0
    0.2358   -0.8210   -2.0430 C   0  0  0  0  0  0  0  0  0  0  0  0
   -0.2952    0.9143   -1.8447 S   0  0  0  0  0  0  0  0  0  0  0  0
   -1.8805    0.6994   -0.4757 P   0  0  0  0  0  0  0  0  0  0  0  0
   -2.8097   -1.0309   -0.4988 S   0  0  0  0  0  0  0  0  0  0  0  0
   -2.7636    1.9753   -0.8281 O   0  0  0  0  0  0  0  0  0  0  0  0
   -3.5727    2.0477   -2.0189 C   0  0  0  0  0  0  0  0  0  0  0  0
   -5.0044    1.6429   -1.7257 C   0  0  0  0  0  0  0  0  0  0  0  0
   -1.2325    1.1686    0.8874 O   0  0  0  0  0  0  0  0  0  0  0  0
   -1.8302    0.8778    2.1660 C   0  0  0  0  0  0  0  0  0  0  0  0
   -3.1591    1.5801    2.3383 C   0  0  0  0  0  0  0  0  0  0  0  0
    4.3373    2.7617    0.9963 H   0  0  0  0  0  0  0  0  0  0  0  0
    3.1778    2.3553    2.2728 H   0  0  0  0  0  0  0  0  0  0  0  0
    4.2245    1.0996    1.6011 H   0  0  0  0  0  0  0  0  0  0  0  0
    3.0844    1.3095   -0.6045 H   0  0  0  0  0  0  0  0  0  0  0  0
    2.0296    2.5879    0.0623 H   0  0  0  0  0  0  0  0  0  0  0  0
    2.8332   -3.1912    1.4333 H   0  0  0  0  0  0  0  0  0  0  0  0
    3.8601   -2.8269    0.0227 H   0  0  0  0  0  0  0  0  0  0  0  0
    4.6278   -2.3283    2.9475 H   0  0  0  0  0  0  0  0  0  0  0  0
    5.2363   -3.6500    1.9391 H   0  0  0  0  0  0  0  0  0  0  0  0
    5.6448   -1.9728    1.5442 H   0  0  0  0  0  0  0  0  0  0  0  0
   -0.4168   -1.4590   -1.4395 H   0  0  0  0  0  0  0  0  0  0  0  0
    0.1681   -1.0758   -3.0974 H   0  0  0  0  0  0  0  0  0  0  0  0
   -3.5096    3.0917   -2.3311 H   0  0  0  0  0  0  0  0  0  0  0  0
   -3.1363    1.4089   -2.7922 H   0  0  0  0  0  0  0  0  0  0  0  0
   -5.6000    1.7601   -2.6252 H   0  0  0  0  0  0  0  0  0  0  0  0
   -5.0431    0.6029   -1.4087 H   0  0  0  0  0  0  0  0  0  0  0  0
   -5.4160    2.2671   -0.9376 H   0  0  0  0  0  0  0  0  0  0  0  0
   -1.9438   -0.2079    2.2567 H   0  0  0  0  0  0  0  0  0  0  0  0
   -1.0838    1.2229    2.8831 H   0  0  0  0  0  0  0  0  0  0  0  0
   -3.8800    1.1802    1.6259 H   0  0  0  0  0  0  0  0  0  0  0  0
   -3.5261    1.4108    3.3458 H   0  0  0  0  0  0  0  0  0  0  0  0
   -3.0448    2.6468    2.1641 H   0  0  0  0  0  0  0  0  0  0  0  0
  1  2  1  0  0  0  0
  2  3  1  0  0  0  0
  3  4  2  0  0  0  0
  4  5  2  0  0  0  0
  4  6  2  0  0  0  0
  6  7  1  0  0  0  0
  7  8  1  0  0  0  0
  4  9  1  0  0  0  0
  9 10  1  0  0  0  0
 10 11  1  0  0  0  0
 11 12  1  0  0  0  0
 12 13  2  0  0  0  0
 12 14  2  0  0  0  0
 14 15  1  0  0  0  0
 15 16  1  0  0  0  0
 12 17  2  0  0  0  0
 17 18  1  0  0  0  0
 18 19  1  0  0  0  0
  1 20  1  0  0  0  0
  1 21  1  0  0  0  0
  1 22  1  0  0  0  0
  2 23  1  0  0  0  0
  2 24  1  0  0  0  0
  7 25  1  0  0  0  0
  7 26  1  0  0  0  0
  8 27  1  0  0  0  0
  8 28  1  0  0  0  0
  8 29  1  0  0  0  0
 10 30  1  0  0  0  0
 10 31  1  0  0  0  0
 15 32  1  0  0  0  0
 15 33  1  0  0  0  0
 16 34  1  0  0  0  0
 16 35  1  0  0  0  0
 16 36  1  0  0  0  0
 18 37  1  0  0  0  0
 18 38  1  0  0  0  0
 19 39  1  0  0  0  0
 19 40  1  0  0  0  0
 19 41  1  0  0  0  0
M  END
