41
 xtb: 6.7.1 (edcfbbe)
C            4.44265921326847        0.97401437946246       -2.38893567004592
C            4.97477233461234        0.01423793733343       -1.35371337661878
O            3.98824868194704       -1.00493917065727       -0.96889938413763
P            2.72556346757113       -0.65408243979319       -0.04019208239521
S            2.95816095813617        0.71903067476638        1.32110078468324
O            2.47245394785605       -2.16206217894778        0.46009652234461
C            1.29244916913699       -2.44759301374167        1.29318515672071
C            1.75131077051837       -2.97373876271983        2.62865401550905
S            1.10886487116488       -0.31057106014316       -1.39333233736631
C            0.40580443944705        1.26605391504657       -0.77785719128803
S           -0.67643056385482        1.12296677674837        0.70248085191993
P           -2.57962766535850        0.85222617119260       -0.19356541378843
S           -2.62175707256798        0.03466808192372       -1.96114366396147
O           -3.18102424429223        2.34122867210294       -0.07467996463289
C           -4.41836881530328        2.72234973600537       -0.77890861912350
C           -5.64340779807491        2.06094627237825       -0.19603333204049
O           -3.38022517179021        0.09669559249342        0.98423203899674
C           -3.59363300670048       -1.35779870727947        0.98701817940138
C           -2.32971394765998       -2.12685725563467        1.28286148846267
H            3.64078061272882        1.60120722957217       -1.98815288244076
H            5.26206804490291        1.62997602153219       -2.70072965096639
H            4.07285595685742        0.44088892038100       -3.26918033800102
H            5.30319301958598        0.53113676321107       -0.44696451235714
H            5.80476933455428       -0.57668155468254       -1.74560873821477
H            0.69188833155240       -1.53882115172408        1.40515799428686
H            0.70906750331569       -3.18572756985496        0.73694798072863
H            2.36529849700815       -3.87044552144923        2.50637507978131
H            2.32644163111758       -2.21718099178655        3.17003173870613
H            0.87217810111412       -3.23553585735888        3.22640434138435
H           -0.15532986220919        1.69319031227415       -1.61269986161017
H            1.21709114282518        1.94350130552177       -0.50224119248513
H           -4.45118166796614        3.80642981018333       -0.65555349754110
H           -4.29109811451753        2.48778731738108       -1.84024640051894
H           -5.71326093328920        2.24218666061350        0.88025996022504
H           -6.52803511290527        2.49221638692715       -0.67584582510811
H           -5.65088503824222        0.98242887960689       -0.37822885439728
H           -4.34447775472298       -1.50076596212940        1.76665953886783
H           -4.02389876791951       -1.63877176172135        0.02096144973319
H           -1.87525248285986       -1.79655070720622        2.22134230433861
H           -2.58409815669202       -3.18790576790731        1.37634244263857
H           -1.59984464568975       -2.02249325861947        0.47570712720966
