 xtb: 6.7.1 (edcfbbe)
          04092505203D

 41 40  0     0  0            999 V2000
    4.4916   -1.6035   -0.9537 C   0  0  0  0  0  0  0  0  0  0  0  0
    4.6055   -0.1548   -0.5254 C   0  0  0  0  0  0  0  0  0  0  0  0
    3.5418    0.2320    0.3594 O   0  0  0  0  0  0  0  0  0  0  0  0
    2.0283    0.3568   -0.1263 P   0  0  0  0  0  0  0  0  0  0  0  0
    1.8710    1.0373   -1.9647 S   0  0  0  0  0  0  0  0  0  0  0  0
    1.4129    1.1543    1.0955 O   0  0  0  0  0  0  0  0  0  0  0  0
    1.9185    2.4188    1.5768 C   0  0  0  0  0  0  0  0  0  0  0  0
    1.6639    3.5476    0.5987 C   0  0  0  0  0  0  0  0  0  0  0  0
    1.1716   -1.5383    0.2418 S   0  0  0  0  0  0  0  0  0  0  0  0
    0.1493   -1.7304   -1.2558 C   0  0  0  0  0  0  0  0  0  0  0  0
   -1.5768   -2.1285   -0.8849 S   0  0  0  0  0  0  0  0  0  0  0  0
   -2.0999   -0.4062    0.2067 P   0  0  0  0  0  0  0  0  0  0  0  0
   -1.4114    1.3167   -0.4498 S   0  0  0  0  0  0  0  0  0  0  0  0
   -1.6754   -0.8931    1.6527 O   0  0  0  0  0  0  0  0  0  0  0  0
   -2.1010   -0.2756    2.8868 C   0  0  0  0  0  0  0  0  0  0  0  0
   -1.2536    0.9336    3.2272 C   0  0  0  0  0  0  0  0  0  0  0  0
   -3.6856   -0.4494    0.3181 O   0  0  0  0  0  0  0  0  0  0  0  0
   -4.5428    0.1788   -0.6506 C   0  0  0  0  0  0  0  0  0  0  0  0
   -4.5065   -0.5361   -1.9855 C   0  0  0  0  0  0  0  0  0  0  0  0
    4.3904   -2.2483   -0.0844 H   0  0  0  0  0  0  0  0  0  0  0  0
    3.6180   -1.7317   -1.5914 H   0  0  0  0  0  0  0  0  0  0  0  0
    5.3790   -1.8836   -1.5119 H   0  0  0  0  0  0  0  0  0  0  0  0
    4.5852    0.5052   -1.3986 H   0  0  0  0  0  0  0  0  0  0  0  0
    5.5098    0.0245    0.0577 H   0  0  0  0  0  0  0  0  0  0  0  0
    1.3695    2.5742    2.5074 H   0  0  0  0  0  0  0  0  0  0  0  0
    2.9852    2.3090    1.7868 H   0  0  0  0  0  0  0  0  0  0  0  0
    2.2616    3.4163   -0.3016 H   0  0  0  0  0  0  0  0  0  0  0  0
    0.6143    3.5604    0.3105 H   0  0  0  0  0  0  0  0  0  0  0  0
    1.9226    4.4940    1.0625 H   0  0  0  0  0  0  0  0  0  0  0  0
    0.5239   -2.5754   -1.8280 H   0  0  0  0  0  0  0  0  0  0  0  0
    0.2100   -0.8048   -1.8368 H   0  0  0  0  0  0  0  0  0  0  0  0
   -3.1576   -0.0111    2.8025 H   0  0  0  0  0  0  0  0  0  0  0  0
   -1.9758   -1.0690    3.6259 H   0  0  0  0  0  0  0  0  0  0  0  0
   -0.2040    0.6510    3.2549 H   0  0  0  0  0  0  0  0  0  0  0  0
   -1.3834    1.7096    2.4749 H   0  0  0  0  0  0  0  0  0  0  0  0
   -1.5513    1.3218    4.1962 H   0  0  0  0  0  0  0  0  0  0  0  0
   -5.5323    0.1325   -0.1938 H   0  0  0  0  0  0  0  0  0  0  0  0
   -4.2305    1.2222   -0.7636 H   0  0  0  0  0  0  0  0  0  0  0  0
   -3.5260   -0.4166   -2.4447 H   0  0  0  0  0  0  0  0  0  0  0  0
   -4.7021   -1.5969   -1.8514 H   0  0  0  0  0  0  0  0  0  0  0  0
   -5.2568   -0.1087   -2.6429 H   0  0  0  0  0  0  0  0  0  0  0  0
  1  2  1  0  0  0  0
  2  3  1  0  0  0  0
  3  4  2  0  0  0  0
  4  5  2  0  0  0  0
  4  6  2  0  0  0  0
  6  7  1  0  0  0  0
  7  8  1  0  0  0  0
  4  9  1  0  0  0  0
  9 10  1  0  0  0  0
 10 11  1  0  0  0  0
 11 12  1  0  0  0  0
 12 13  2  0  0  0  0
 12 14  2  0  0  0  0
 14 15  1  0  0  0  0
 15 16  1  0  0  0  0
 12 17  2  0  0  0  0
 17 18  1  0  0  0  0
 18 19  1  0  0  0  0
  1 20  1  0  0  0  0
  1 21  1  0  0  0  0
  1 22  1  0  0  0  0
  2 23  1  0  0  0  0
  2 24  1  0  0  0  0
  7 25  1  0  0  0  0
  7 26  1  0  0  0  0
  8 27  1  0  0  0  0
  8 28  1  0  0  0  0
  8 29  1  0  0  0  0
 10 30  1  0  0  0  0
 10 31  1  0  0  0  0
 15 32  1  0  0  0  0
 15 33  1  0  0  0  0
 16 34  1  0  0  0  0
 16 35  1  0  0  0  0
 16 36  1  0  0  0  0
 18 37  1  0  0  0  0
 18 38  1  0  0  0  0
 19 39  1  0  0  0  0
 19 40  1  0  0  0  0
 19 41  1  0  0  0  0
M  END
