41
 xtb: 6.7.1 (edcfbbe)
C            5.10132247644386       -2.36804666508119       -1.59476497290282
C            4.24804285495741       -1.12726770927996       -1.55537190054796
O            3.20270774272056       -1.35259367143101       -0.54633504584203
P            2.25135409729252       -0.14830807370259       -0.05300077611732
S            3.11570024511228        1.52732632962274        0.43298497333005
O            1.41097292344584       -0.90458361519671        1.08421890595509
C            1.67325904136516       -0.71992034515347        2.51766328962650
C            2.88508336374998       -1.50215689804881        2.95857827151733
S            0.85999119640023       -0.05526404268432       -1.64924462368000
C            0.07075127486881        1.57037071643190       -1.31373793155898
S           -0.78876396319457        1.76416311244976        0.29201263109995
P           -2.37214021727842        0.35601858746462        0.07325534332554
S           -3.12222716355035        0.22189242262604       -1.71987630144160
O           -3.32305047461067        0.77348266656322        1.30044148700921
C           -3.81705191202462        2.13212768026254        1.57467650396725
C           -4.75743529055569        2.65480592892816        0.51817104158958
O           -1.82002738805876       -1.01243069534945        0.70896311363391
C           -1.73693175670062       -2.28259348312148       -0.01845645659558
C           -2.92469230309407       -3.14645666790863        0.32402838032850
H            5.57955441999090       -2.54241122780147       -0.62675487481798
H            4.50699580735510       -3.24544117438920       -1.86457030495641
H            5.88368345918076       -2.23559163449760       -2.34827458250898
H            3.75966376122842       -0.93799744400743       -2.51689488854243
H            4.82677143359065       -0.24557173217893       -1.26347725795298
H            1.77797624768716        0.35118322024934        2.71486528891889
H            0.75887305351140       -1.08180635537586        2.99264946877628
H            3.79849030241371       -1.11936362099755        2.49306530212948
H            2.99040814845898       -1.40742417683846        4.04434221540748
H            2.77667607151632       -2.56246001316803        2.71299270884500
H           -0.63808622748044        1.72333389432387       -2.13283734270340
H            0.83089414591678        2.35647446042500       -1.33273188779110
H           -4.32352883033177        2.01589772672411        2.53475150106394
H           -2.95563398179317        2.79209770646806        1.71413210548165
H           -5.57957463855830        1.95560302806349        0.34159702361814
H           -5.17863115861729        3.59878849415851        0.87955461913426
H           -4.24366662919243        2.84862506212475       -0.42637053607340
H           -1.67501841050996       -2.08018272463248       -1.09075603015309
H           -0.79631748594045       -2.72790791231873        0.31418806593464
H           -3.85643920791983       -2.68263200473940       -0.01335920521279
H           -2.81857147537770       -4.11344159863953       -0.17884846444064
H           -2.98378489222455       -3.32303658592119        1.40178515651993
