20
 xtb: 6.7.1 (edcfbbe)
C            0.61737226197946        1.70550835635135       -0.01979718893395
C            1.38445233681407        0.40853765736535       -0.24578325984227
H            1.61088258371650        0.29166360259520       -1.31542003612011
C            0.55181549588034       -0.78136251741145        0.20976284086680
H            0.40609249691456       -0.72078586931185        1.29947439095824
C           -0.79610484656417       -0.74280119957216       -0.49090046751636
H           -0.62989324346447       -0.85416801589791       -1.57214808601584
C           -1.48801780881422        0.61253210142643       -0.28156583878300
H           -2.37644809297982        0.68240978937873       -0.92096125668566
O           -0.64290045170647        1.67348807658782       -0.71742886325230
O           -1.84284476785543        0.73579167759734        1.08053268383382
O           -1.59296700833873       -1.82082462280276        0.00118741658429
O            1.18612955411622       -2.02091388510670       -0.13010539001494
O            2.59483831878134        0.40106190696200        0.52293136513713
H            1.16893338267817        2.55546024087237       -0.42937927842230
H            0.46243702319438        1.86687474980407        1.05493892010129
H           -2.46751894280566        1.47013557129193        1.15486599122939
H           -2.37227168578709       -1.88995268180624       -0.56619957745098
H            2.03755803582548       -2.03480821174390        0.32720289537702
H            3.21973870529881        0.99909266491724        0.09193386639595
