 xtb: 6.7.1 (edcfbbe)
          04092507313D

 38 37  0     0  0            999 V2000
    5.9225   -1.6700   -0.5769 C   0  0  0  0  0  0  0  0  0  0  0  0
    4.8165   -0.8264   -1.1804 C   0  0  0  0  0  0  0  0  0  0  0  0
    3.5517   -1.3564   -0.7371 O   0  0  0  0  0  0  0  0  0  0  0  0
    2.4659   -0.9902   -1.3829 C   0  0  0  0  0  0  0  0  0  0  0  0
    2.4528   -0.2395   -2.3335 O   0  0  0  0  0  0  0  0  0  0  0  0
    1.2244   -1.6424   -0.7993 C   0  0  0  0  0  0  0  0  0  0  0  0
    0.1728   -0.5692   -0.5406 C   0  0  0  0  0  0  0  0  0  0  0  0
    0.0193    0.0248   -1.4505 H   0  0  0  0  0  0  0  0  0  0  0  0
    0.5761    0.3884    0.5647 C   0  0  0  0  0  0  0  0  0  0  0  0
   -0.1982    0.7516    1.4264 O   0  0  0  0  0  0  0  0  0  0  0  0
    1.8199    0.7717    0.4557 O   0  0  0  0  0  0  0  0  0  0  0  0
    2.3506    1.6817    1.4459 C   0  0  0  0  0  0  0  0  0  0  0  0
    2.9259    0.9088    2.6208 C   0  0  0  0  0  0  0  0  0  0  0  0
   -1.4212   -1.3173   -0.0732 S   0  0  0  0  0  0  0  0  0  0  0  0
   -2.5485    0.4667    0.1831 P   0  0  0  0  0  0  0  0  0  0  0  0
   -1.9422    2.0548   -0.7904 S   0  0  0  0  0  0  0  0  0  0  0  0
   -3.9933   -0.0397   -0.3102 O   0  0  0  0  0  0  0  0  0  0  0  0
   -4.2512   -0.3387   -1.6844 C   0  0  0  0  0  0  0  0  0  0  0  0
   -2.8851    0.7102    1.7048 O   0  0  0  0  0  0  0  0  0  0  0  0
   -3.4057   -0.3302    2.5561 C   0  0  0  0  0  0  0  0  0  0  0  0
    5.8605   -1.6483    0.5068 H   0  0  0  0  0  0  0  0  0  0  0  0
    5.8331   -2.6991   -0.9118 H   0  0  0  0  0  0  0  0  0  0  0  0
    6.8839   -1.2754   -0.8882 H   0  0  0  0  0  0  0  0  0  0  0  0
    4.8360   -0.8453   -2.2743 H   0  0  0  0  0  0  0  0  0  0  0  0
    4.8771    0.2160   -0.8534 H   0  0  0  0  0  0  0  0  0  0  0  0
    1.4841   -2.1731    0.1153 H   0  0  0  0  0  0  0  0  0  0  0  0
    0.8289   -2.3509   -1.5291 H   0  0  0  0  0  0  0  0  0  0  0  0
    3.1205    2.2402    0.9132 H   0  0  0  0  0  0  0  0  0  0  0  0
    1.5490    2.3532    1.7652 H   0  0  0  0  0  0  0  0  0  0  0  0
    3.6622    0.1906    2.2700 H   0  0  0  0  0  0  0  0  0  0  0  0
    3.3991    1.6036    3.3065 H   0  0  0  0  0  0  0  0  0  0  0  0
    2.1338    0.3792    3.1450 H   0  0  0  0  0  0  0  0  0  0  0  0
   -5.3312   -0.4291   -1.7673 H   0  0  0  0  0  0  0  0  0  0  0  0
   -3.7640   -1.2746   -1.9578 H   0  0  0  0  0  0  0  0  0  0  0  0
   -3.8872    0.4714   -2.3188 H   0  0  0  0  0  0  0  0  0  0  0  0
   -4.3943   -0.6291    2.2124 H   0  0  0  0  0  0  0  0  0  0  0  0
   -3.4542    0.1159    3.5459 H   0  0  0  0  0  0  0  0  0  0  0  0
   -2.7305   -1.1860    2.5521 H   0  0  0  0  0  0  0  0  0  0  0  0
  1  2  1  0  0  0  0
  2  3  1  0  0  0  0
  3  4  1  0  0  0  0
  4  5  2  0  0  0  0
  4  6  1  0  0  0  0
  6  7  1  0  0  0  0
  7  8  1  0  0  0  0
  7  9  1  0  0  0  0
  9 10  2  0  0  0  0
  9 11  4  0  0  0  0
 11 12  1  0  0  0  0
 12 13  1  0  0  0  0
  7 14  1  0  0  0  0
 14 15  1  0  0  0  0
 15 16  2  0  0  0  0
 15 17  1  0  0  0  0
 17 18  1  0  0  0  0
 15 19  2  0  0  0  0
 19 20  1  0  0  0  0
  1 21  1  0  0  0  0
  1 22  1  0  0  0  0
  1 23  1  0  0  0  0
  2 24  1  0  0  0  0
  2 25  1  0  0  0  0
  6 26  1  0  0  0  0
  6 27  1  0  0  0  0
 12 28  1  0  0  0  0
 12 29  1  0  0  0  0
 13 30  1  0  0  0  0
 13 31  1  0  0  0  0
 13 32  1  0  0  0  0
 18 33  1  0  0  0  0
 18 34  1  0  0  0  0
 18 35  1  0  0  0  0
 20 36  1  0  0  0  0
 20 37  1  0  0  0  0
 20 38  1  0  0  0  0
M  END
