 xtb: 6.7.1 (edcfbbe)
          04092505203D

 41 40  0     0  0            999 V2000
    4.3500   -2.3796   -0.7483 C   0  0  0  0  0  0  0  0  0  0  0  0
    4.9546   -0.9967   -0.6139 C   0  0  0  0  0  0  0  0  0  0  0  0
    4.0951   -0.0912    0.0999 O   0  0  0  0  0  0  0  0  0  0  0  0
    2.7040    0.4079   -0.4823 P   0  0  0  0  0  0  0  0  0  0  0  0
    2.6986    0.7795   -2.4052 S   0  0  0  0  0  0  0  0  0  0  0  0
    2.4220    1.7196    0.3432 O   0  0  0  0  0  0  0  0  0  0  0  0
    2.0234    1.8184    1.7319 C   0  0  0  0  0  0  0  0  0  0  0  0
    2.9195    1.0339    2.6647 C   0  0  0  0  0  0  0  0  0  0  0  0
    1.2916   -1.0482    0.1722 S   0  0  0  0  0  0  0  0  0  0  0  0
   -0.0268   -0.5729   -0.9606 C   0  0  0  0  0  0  0  0  0  0  0  0
   -0.8683    0.9672   -0.4421 S   0  0  0  0  0  0  0  0  0  0  0  0
   -2.7435    0.1353    0.0697 P   0  0  0  0  0  0  0  0  0  0  0  0
   -4.0653    1.3450    0.8571 S   0  0  0  0  0  0  0  0  0  0  0  0
   -2.4268   -1.1762    0.9196 O   0  0  0  0  0  0  0  0  0  0  0  0
   -2.4147   -1.1711    2.3571 C   0  0  0  0  0  0  0  0  0  0  0  0
   -1.2316   -0.4033    2.9096 C   0  0  0  0  0  0  0  0  0  0  0  0
   -3.1039   -0.4897   -1.3457 O   0  0  0  0  0  0  0  0  0  0  0  0
   -4.4608   -0.8227   -1.7056 C   0  0  0  0  0  0  0  0  0  0  0  0
   -5.0013   -1.9728   -0.8820 C   0  0  0  0  0  0  0  0  0  0  0  0
    3.4883   -2.3468   -1.4129 H   0  0  0  0  0  0  0  0  0  0  0  0
    5.0900   -3.0533   -1.1683 H   0  0  0  0  0  0  0  0  0  0  0  0
    4.0330   -2.7511    0.2227 H   0  0  0  0  0  0  0  0  0  0  0  0
    5.1635   -0.5710   -1.6004 H   0  0  0  0  0  0  0  0  0  0  0  0
    5.8671   -1.0123   -0.0163 H   0  0  0  0  0  0  0  0  0  0  0  0
    2.0743    2.8906    1.9273 H   0  0  0  0  0  0  0  0  0  0  0  0
    0.9849    1.4858    1.8068 H   0  0  0  0  0  0  0  0  0  0  0  0
    3.9547    1.3387    2.5365 H   0  0  0  0  0  0  0  0  0  0  0  0
    2.6125    1.2231    3.6887 H   0  0  0  0  0  0  0  0  0  0  0  0
    2.8390   -0.0319    2.4605 H   0  0  0  0  0  0  0  0  0  0  0  0
   -0.7483   -1.3837   -0.9889 H   0  0  0  0  0  0  0  0  0  0  0  0
    0.4068   -0.3854   -1.9440 H   0  0  0  0  0  0  0  0  0  0  0  0
   -3.3542   -0.7319    2.7078 H   0  0  0  0  0  0  0  0  0  0  0  0
   -2.3709   -2.2276    2.6238 H   0  0  0  0  0  0  0  0  0  0  0  0
   -1.3151    0.6470    2.6284 H   0  0  0  0  0  0  0  0  0  0  0  0
   -1.2282   -0.4770    3.9921 H   0  0  0  0  0  0  0  0  0  0  0  0
   -0.3021   -0.8097    2.5173 H   0  0  0  0  0  0  0  0  0  0  0  0
   -5.0808    0.0698   -1.5755 H   0  0  0  0  0  0  0  0  0  0  0  0
   -4.3930   -1.0761   -2.7645 H   0  0  0  0  0  0  0  0  0  0  0  0
   -5.9799   -2.2534   -1.2587 H   0  0  0  0  0  0  0  0  0  0  0  0
   -4.3324   -2.8274   -0.9404 H   0  0  0  0  0  0  0  0  0  0  0  0
   -5.0979   -1.6683    0.1592 H   0  0  0  0  0  0  0  0  0  0  0  0
  1  2  1  0  0  0  0
  2  3  1  0  0  0  0
  3  4  2  0  0  0  0
  4  5  2  0  0  0  0
  4  6  2  0  0  0  0
  6  7  1  0  0  0  0
  7  8  1  0  0  0  0
  4  9  1  0  0  0  0
  9 10  1  0  0  0  0
 10 11  1  0  0  0  0
 11 12  1  0  0  0  0
 12 13  2  0  0  0  0
 12 14  2  0  0  0  0
 14 15  1  0  0  0  0
 15 16  1  0  0  0  0
 12 17  2  0  0  0  0
 17 18  1  0  0  0  0
 18 19  1  0  0  0  0
  1 20  1  0  0  0  0
  1 21  1  0  0  0  0
  1 22  1  0  0  0  0
  2 23  1  0  0  0  0
  2 24  1  0  0  0  0
  7 25  1  0  0  0  0
  7 26  1  0  0  0  0
  8 27  1  0  0  0  0
  8 28  1  0  0  0  0
  8 29  1  0  0  0  0
 10 30  1  0  0  0  0
 10 31  1  0  0  0  0
 15 32  1  0  0  0  0
 15 33  1  0  0  0  0
 16 34  1  0  0  0  0
 16 35  1  0  0  0  0
 16 36  1  0  0  0  0
 18 37  1  0  0  0  0
 18 38  1  0  0  0  0
 19 39  1  0  0  0  0
 19 40  1  0  0  0  0
 19 41  1  0  0  0  0
M  END
