41
 xtb: 6.7.1 (edcfbbe)
C            4.45261586064550       -2.49611350756484       -0.31821774412161
C            4.76486649699720       -1.03335453564389       -0.12383883280753
O            3.65093476845470       -0.31031490595855        0.50549443144179
P            2.34898010119948        0.17710017582259       -0.30717579302846
S            2.56427875691364        0.55722346975740       -2.20603252181870
O            1.84129077765232        1.39055610837001        0.61623527681142
C            2.28160215132382        2.77438823156846        0.37951830417388
C            3.72291326185344        2.98691709052161        0.77324065115806
S            0.95753933307200       -1.33525211766472        0.19783514906747
C           -0.35237386665278       -1.01888062250374       -1.05121982510119
S           -1.30829443291672        0.54949496150774       -0.90368979289890
P           -2.91016403874917       -0.02571164327255        0.35001313269775
S           -4.18779349266048        1.43976108343061        0.43991113525241
O           -2.29116369144705       -0.57262847101662        1.72920765042288
C           -2.09874447686614        0.29210072645619        2.90256815250268
C           -0.84832874961418        1.12969249257116        2.80489908116796
O           -3.42538374256399       -1.45646799182500       -0.17279544810116
C           -4.43030378217287       -1.59580829299842       -1.23704108133400
C           -3.85586886002301       -1.38048124047694       -2.61563963522634
H            5.35515064006986       -2.99876787146917       -0.68114279870221
H            4.15474296248847       -2.96245782726821        0.62544580632108
H            3.65969192681247       -2.64536262781281       -1.05653801835292
H            5.00711469864937       -0.53588617036117       -1.06767907110966
H            5.58949804193919       -0.88834793573890        0.57698343066373
H            2.10260364620860        3.01494934296456       -0.67305129270309
H            1.60292546905725        3.36355344137210        0.99961455886448
H            3.89365878301191        2.68711279803744        1.81110982456570
H            4.40665571850210        2.43170318122426        0.12403506901151
H            3.95566578696994        4.05268844429620        0.67860615461896
H           -1.03169131762931       -1.87361917932324       -0.99009078537500
H            0.10555824984923       -1.00106073148461       -2.04409356916698
H           -2.99570914562255        0.90651166827164        3.02502544024048
H           -2.04001411147829       -0.41775378747372        3.73021873535233
H           -0.72844408972320        1.67417851553094        3.74766720155895
H            0.03305067116785        0.50213982308201        2.65218895686108
H           -0.91065579729299        1.86154126171859        1.99463830034634
H           -4.78521688978333       -2.62034881595084       -1.10959316037427
H           -5.25270201283885       -0.90605819660548       -1.02398498829470
H           -2.97967299103215       -2.01469823551194       -2.78118683636468
H           -4.62104099257889       -1.65297206387874       -3.35013391311509
H           -3.57898957262525       -0.33696130146809       -2.78383978679579
