 xtb: 6.7.1 (edcfbbe)
          04092507313D

 38 37  0     0  0            999 V2000
    3.3695   -1.7505    1.4880 C   0  0  0  0  0  0  0  0  0  0  0  0
    3.0045   -2.3542    0.1423 C   0  0  0  0  0  0  0  0  0  0  0  0
    2.6942   -1.3085   -0.7975 O   0  0  0  0  0  0  0  0  0  0  0  0
    1.4569   -1.1284   -1.1950 C   0  0  0  0  0  0  0  0  0  0  0  0
    0.5071   -1.8078   -0.8539 O   0  0  0  0  0  0  0  0  0  0  0  0
    1.3429    0.0320   -2.1611 C   0  0  0  0  0  0  0  0  0  0  0  0
    0.2561    1.0080   -1.7190 C   0  0  0  0  0  0  0  0  0  0  0  0
    0.1456    1.7991   -2.4675 H   0  0  0  0  0  0  0  0  0  0  0  0
    0.5165    1.6745   -0.3796 C   0  0  0  0  0  0  0  0  0  0  0  0
   -0.3856    2.1172    0.3040 O   0  0  0  0  0  0  0  0  0  0  0  0
    1.7874    1.7195   -0.0843 O   0  0  0  0  0  0  0  0  0  0  0  0
    2.1797    2.3241    1.1655 C   0  0  0  0  0  0  0  0  0  0  0  0
    2.2406    3.8374    1.0474 C   0  0  0  0  0  0  0  0  0  0  0  0
   -1.4040    0.2463   -1.6396 S   0  0  0  0  0  0  0  0  0  0  0  0
   -1.6229   -0.3146    0.4064 P   0  0  0  0  0  0  0  0  0  0  0  0
   -0.2080   -0.5576    1.7391 S   0  0  0  0  0  0  0  0  0  0  0  0
   -2.6934    0.6891    1.0051 O   0  0  0  0  0  0  0  0  0  0  0  0
   -3.9236    1.0331    0.3464 C   0  0  0  0  0  0  0  0  0  0  0  0
   -2.5699   -1.5991    0.2405 O   0  0  0  0  0  0  0  0  0  0  0  0
   -2.1267   -2.9045   -0.1280 C   0  0  0  0  0  0  0  0  0  0  0  0
    3.6696   -2.5425    2.1657 H   0  0  0  0  0  0  0  0  0  0  0  0
    4.1881   -1.0468    1.3704 H   0  0  0  0  0  0  0  0  0  0  0  0
    2.5095   -1.2335    1.9107 H   0  0  0  0  0  0  0  0  0  0  0  0
    2.1388   -3.0158    0.2317 H   0  0  0  0  0  0  0  0  0  0  0  0
    3.8495   -2.8909   -0.2931 H   0  0  0  0  0  0  0  0  0  0  0  0
    1.0707   -0.3671   -3.1397 H   0  0  0  0  0  0  0  0  0  0  0  0
    2.3036    0.5422   -2.2163 H   0  0  0  0  0  0  0  0  0  0  0  0
    1.4684    2.0132    1.9365 H   0  0  0  0  0  0  0  0  0  0  0  0
    3.1615    1.8960    1.3666 H   0  0  0  0  0  0  0  0  0  0  0  0
    2.6076    4.2505    1.9809 H   0  0  0  0  0  0  0  0  0  0  0  0
    2.9087    4.1237    0.2399 H   0  0  0  0  0  0  0  0  0  0  0  0
    1.2487    4.2385    0.8518 H   0  0  0  0  0  0  0  0  0  0  0  0
   -4.3878    1.7762    0.9895 H   0  0  0  0  0  0  0  0  0  0  0  0
   -4.5533    0.1498    0.2530 H   0  0  0  0  0  0  0  0  0  0  0  0
   -3.7158    1.4529   -0.6381 H   0  0  0  0  0  0  0  0  0  0  0  0
   -1.8380   -2.9191   -1.1778 H   0  0  0  0  0  0  0  0  0  0  0  0
   -2.9757   -3.5591    0.0534 H   0  0  0  0  0  0  0  0  0  0  0  0
   -1.2742   -3.1977    0.4843 H   0  0  0  0  0  0  0  0  0  0  0  0
  1  2  1  0  0  0  0
  2  3  1  0  0  0  0
  3  4  4  0  0  0  0
  4  5  2  0  0  0  0
  4  6  1  0  0  0  0
  6  7  1  0  0  0  0
  7  8  1  0  0  0  0
  7  9  1  0  0  0  0
  9 10  2  0  0  0  0
  9 11  4  0  0  0  0
 11 12  1  0  0  0  0
 12 13  1  0  0  0  0
  7 14  1  0  0  0  0
 14 15  1  0  0  0  0
 15 16  2  0  0  0  0
 15 17  2  0  0  0  0
 17 18  1  0  0  0  0
 15 19  1  0  0  0  0
 19 20  1  0  0  0  0
  1 21  1  0  0  0  0
  1 22  1  0  0  0  0
  1 23  1  0  0  0  0
  2 24  1  0  0  0  0
  2 25  1  0  0  0  0
  6 26  1  0  0  0  0
  6 27  1  0  0  0  0
 12 28  1  0  0  0  0
 12 29  1  0  0  0  0
 13 30  1  0  0  0  0
 13 31  1  0  0  0  0
 13 32  1  0  0  0  0
 18 33  1  0  0  0  0
 18 34  1  0  0  0  0
 18 35  1  0  0  0  0
 20 36  1  0  0  0  0
 20 37  1  0  0  0  0
 20 38  1  0  0  0  0
M  END
