 xtb: 6.7.1 (edcfbbe)
          04032519463D

 11 10  0     0  0            999 V2000
   -2.1292   -1.2591   -0.1437 C   0  0  0  0  0  0  0  0  0  0  0  0
   -1.5046   -0.0000    0.4155 C   0  0  0  0  0  0  0  0  0  0  0  0
   -2.1284    1.2595   -0.1437 C   0  0  0  0  0  0  0  0  0  0  0  0
    0.6670   -0.0000   -0.0107 I   0  0  0  0  0  0  0  0  0  0  0  0
   -2.0472   -1.2851   -1.2284 H   0  0  0  0  0  0  0  0  0  0  0  0
   -1.6575   -2.1511    0.2624 H   0  0  0  0  0  0  0  0  0  0  0  0
   -3.1848   -1.2768    0.1228 H   0  0  0  0  0  0  0  0  0  0  0  0
   -1.5429   -0.0000    1.5045 H   0  0  0  0  0  0  0  0  0  0  0  0
   -3.1845    1.2770    0.1213 H   0  0  0  0  0  0  0  0  0  0  0  0
   -2.0449    1.2862   -1.2282 H   0  0  0  0  0  0  0  0  0  0  0  0
   -1.6574    2.1511    0.2637 H   0  0  0  0  0  0  0  0  0  0  0  0
  1  2  1  0  0  0  0
  2  3  1  0  0  0  0
  2  4  1  0  0  0  0
  1  5  1  0  0  0  0
  1  6  1  0  0  0  0
  1  7  1  0  0  0  0
  2  8  1  0  0  0  0
  3  9  1  0  0  0  0
  3 10  1  0  0  0  0
  3 11  1  0  0  0  0
M  END
