 xtb: 6.7.1 (edcfbbe)
          04092505213D

 41 40  0     0  0            999 V2000
    1.1895   -0.5501   -3.1633 C   0  0  0  0  0  0  0  0  0  0  0  0
    2.2608   -0.5465   -2.0921 C   0  0  0  0  0  0  0  0  0  0  0  0
    1.7143   -1.1276   -0.8908 O   0  0  0  0  0  0  0  0  0  0  0  0
    2.1890   -0.7694    0.5829 P   0  0  0  0  0  0  0  0  0  0  0  0
    3.4507    0.7344    0.6868 S   0  0  0  0  0  0  0  0  0  0  0  0
    2.7156   -2.2041    1.0064 O   0  0  0  0  0  0  0  0  0  0  0  0
    2.8503   -2.6773    2.3606 C   0  0  0  0  0  0  0  0  0  0  0  0
    3.6769   -1.7508    3.2279 C   0  0  0  0  0  0  0  0  0  0  0  0
    0.3883   -0.5798    1.6748 S   0  0  0  0  0  0  0  0  0  0  0  0
    0.1686    1.1986    1.4168 C   0  0  0  0  0  0  0  0  0  0  0  0
    0.0668    1.6769   -0.3363 S   0  0  0  0  0  0  0  0  0  0  0  0
   -1.9198    1.0721   -0.7397 P   0  0  0  0  0  0  0  0  0  0  0  0
   -2.5094    1.2809   -2.5947 S   0  0  0  0  0  0  0  0  0  0  0  0
   -2.6683    1.9294    0.3623 O   0  0  0  0  0  0  0  0  0  0  0  0
   -4.0795    2.2192    0.2659 C   0  0  0  0  0  0  0  0  0  0  0  0
   -4.9236    0.9687    0.3897 C   0  0  0  0  0  0  0  0  0  0  0  0
   -2.0609   -0.3987   -0.1493 O   0  0  0  0  0  0  0  0  0  0  0  0
   -1.8096   -1.5901   -0.9147 C   0  0  0  0  0  0  0  0  0  0  0  0
   -2.5671   -2.7261   -0.2574 C   0  0  0  0  0  0  0  0  0  0  0  0
    0.3529    0.0844   -2.8762 H   0  0  0  0  0  0  0  0  0  0  0  0
    1.6124   -0.1676   -4.0863 H   0  0  0  0  0  0  0  0  0  0  0  0
    0.8257   -1.5606   -3.3264 H   0  0  0  0  0  0  0  0  0  0  0  0
    2.6047    0.4697   -1.8719 H   0  0  0  0  0  0  0  0  0  0  0  0
    3.1163   -1.1564   -2.3914 H   0  0  0  0  0  0  0  0  0  0  0  0
    1.8476   -2.8067    2.7770 H   0  0  0  0  0  0  0  0  0  0  0  0
    3.3312   -3.6500    2.2441 H   0  0  0  0  0  0  0  0  0  0  0  0
    4.6477   -1.5702    2.7724 H   0  0  0  0  0  0  0  0  0  0  0  0
    3.1702   -0.7940    3.3467 H   0  0  0  0  0  0  0  0  0  0  0  0
    3.8165   -2.2014    4.2053 H   0  0  0  0  0  0  0  0  0  0  0  0
    1.0384    1.7267    1.8065 H   0  0  0  0  0  0  0  0  0  0  0  0
   -0.7423    1.4902    1.9317 H   0  0  0  0  0  0  0  0  0  0  0  0
   -4.2574    2.9147    1.0872 H   0  0  0  0  0  0  0  0  0  0  0  0
   -4.2640    2.7173   -0.6909 H   0  0  0  0  0  0  0  0  0  0  0  0
   -4.7552    0.3247   -0.4725 H   0  0  0  0  0  0  0  0  0  0  0  0
   -4.6625    0.4254    1.2941 H   0  0  0  0  0  0  0  0  0  0  0  0
   -5.9728    1.2453    0.4225 H   0  0  0  0  0  0  0  0  0  0  0  0
   -2.1407   -1.4203   -1.9449 H   0  0  0  0  0  0  0  0  0  0  0  0
   -0.7329   -1.7839   -0.9122 H   0  0  0  0  0  0  0  0  0  0  0  0
   -2.3609   -3.6469   -0.7929 H   0  0  0  0  0  0  0  0  0  0  0  0
   -2.2465   -2.8296    0.7755 H   0  0  0  0  0  0  0  0  0  0  0  0
   -3.6353   -2.5299   -0.2791 H   0  0  0  0  0  0  0  0  0  0  0  0
  1  2  1  0  0  0  0
  2  3  1  0  0  0  0
  3  4  2  0  0  0  0
  4  5  2  0  0  0  0
  4  6  2  0  0  0  0
  6  7  1  0  0  0  0
  7  8  1  0  0  0  0
  4  9  1  0  0  0  0
  9 10  1  0  0  0  0
 10 11  1  0  0  0  0
 11 12  1  0  0  0  0
 12 13  2  0  0  0  0
 12 14  2  0  0  0  0
 14 15  1  0  0  0  0
 15 16  1  0  0  0  0
 12 17  2  0  0  0  0
 17 18  1  0  0  0  0
 18 19  1  0  0  0  0
  1 20  1  0  0  0  0
  1 21  1  0  0  0  0
  1 22  1  0  0  0  0
  2 23  1  0  0  0  0
  2 24  1  0  0  0  0
  7 25  1  0  0  0  0
  7 26  1  0  0  0  0
  8 27  1  0  0  0  0
  8 28  1  0  0  0  0
  8 29  1  0  0  0  0
 10 30  1  0  0  0  0
 10 31  1  0  0  0  0
 15 32  1  0  0  0  0
 15 33  1  0  0  0  0
 16 34  1  0  0  0  0
 16 35  1  0  0  0  0
 16 36  1  0  0  0  0
 18 37  1  0  0  0  0
 18 38  1  0  0  0  0
 19 39  1  0  0  0  0
 19 40  1  0  0  0  0
 19 41  1  0  0  0  0
M  END
