41
 xtb: 6.7.1 (edcfbbe)
C            5.11207570585684       -0.15962448266192       -1.88231142399449
C            4.88930206413846        0.82116271894899       -0.75930229643661
O            3.84003509190098        0.37673226841264        0.17123380605085
P            2.26718213591289        0.50012621804374       -0.14843797980001
S            1.70129245510760        1.91298931916132       -1.35911250117181
O            1.63440037742295        0.69500502045795        1.31018571181292
C            1.46213611983861       -0.35966923672394        2.32152384584559
C            2.77001676620928       -0.81868573800035        2.91563609252721
S            1.88877064384116       -1.49229960428487       -0.79711500660233
C            0.19642077793209       -1.38529187903205       -1.49714714292904
S           -1.15790463991659       -1.88659279894779       -0.34388901722188
P           -2.26539345853323       -0.09164833089807       -0.18016016287644
S           -2.72558616944607        0.81409725051574       -1.84199976772939
O           -1.37510047525927        0.73679779194882        0.86865601282741
C           -1.54667787911557        2.18737380974632        1.04985851821928
C           -2.81900510004405        2.51172120558937        1.79299204321186
O           -3.48166078743868       -0.59888457767559        0.74577345378065
C           -4.81466560371429       -0.92095067449404        0.21570059196608
C           -4.85042907188067       -2.28538283854627       -0.42498253524927
H            5.31966535701091       -1.16116668736294       -1.49471594733585
H            4.25145754456170       -0.20655333663338       -2.55524748063158
H            5.97980089615403        0.17162128054185       -2.46214636067836
H            4.61766990934491        1.81387555801556       -1.12925900381454
H            5.77057688959278        0.90666168345403       -0.12060770717607
H            0.82811863311619        0.11906202030226        3.07038829826807
H            0.90625366272935       -1.18379662333537        1.86471499291452
H            2.54790548184676       -1.49001934471639        3.75172595289642
H            3.37829686567123       -1.36882317615190        2.19270187315786
H            3.34706894584488        0.02789198810538        3.29822152599524
H            0.18113246312048       -2.08938113089255       -2.33233185288259
H            0.01238902661741       -0.37671592314896       -1.88436589553294
H           -0.66018710060670        2.47774935495093        1.61728055281413
H           -1.51117015635934        2.66164088629511        0.06472898975756
H           -2.86073931943108        1.98083633020766        2.74817778294398
H           -2.83998478675041        3.58769173575790        1.99451246089119
H           -3.70678084852210        2.25924118952849        1.20515141542859
H           -5.45599844817088       -0.87316781353649        1.09789399528296
H           -5.10639637095268       -0.13089860285058       -0.48222019613845
H           -5.88550967873195       -2.51375596587610       -0.69939434281500
H           -4.24251850201278       -2.32027034544044       -1.33365526564295
H           -4.50121605952920       -3.05469246422496        0.26979932708182
