41
 xtb: 6.7.1 (edcfbbe)
C            1.82908695561125        0.14130434941591       -3.21414585447885
C            2.48931563649302        0.31739661612404       -1.87196085322947
O            1.67826590079960       -0.42406502695956       -0.88874392416726
P            2.14751365468405       -0.50457569723131        0.64395114978688
S            2.82423453385889        1.13363028876345        1.45093581554384
O            3.14987426299984       -1.76303704663750        0.58275140461456
C            3.99509277505914       -2.11904831904423        1.73570406333859
C            5.43914850489737       -1.86403455419983        1.38886742609780
S            0.48254393731487       -1.40116874834700        1.59067248825486
C           -0.55688643120334        0.06371842316332        2.02831090898908
S           -2.24654491196815        0.03122500469085        1.32074882618169
P           -1.96219241305308        0.98310653702237       -0.56250596271805
S           -0.87698197375607        2.59612951488043       -0.54951019810264
O           -3.49738309486770        1.11496237876189       -1.02579168810624
C           -4.27936589911127        2.35300589028566       -0.87868950817169
C           -4.76594453535544        2.55600947398639        0.53387844380253
O           -1.36775624744505       -0.09406383530921       -1.58646311216378
C           -1.68866932536205       -1.52931555456312       -1.63105141473106
C           -3.06056351267517       -1.80174044617309       -2.19563985650829
H            2.42041035998465        0.67161898682871       -3.96709618180966
H            1.78099044821987       -0.91475775196328       -3.49407534200362
H            0.81906431213992        0.55991770335490       -3.21178490157106
H            2.51689401904945        1.36678535621558       -1.56433909891973
H            3.50467314685801       -0.09210094507081       -1.86073644500831
H            3.68027026445075       -1.54271974196205        2.61106184833940
H            3.79718981808065       -3.17778992930903        1.91917585574714
H            6.06826123088926       -2.18426987388704        2.22576123081157
H            5.73273922808334       -2.43056083478118        0.50054653769120
H            5.61586110311768       -0.79986154944729        1.20886860212048
H           -0.04153171030966        0.98641233385831        1.73883470984270
H           -0.69301815228266        0.05828166309031        3.11217017138089
H           -3.66351147043479        3.18786748757306       -1.22531655363994
H           -5.10970129376436        2.20919075123780       -1.57285302288941
H           -3.93889094119774        2.74737453773312        1.22320829539421
H           -5.42884244346318        3.42747892463600        0.54817583013565
H           -5.33175853134038        1.68780590723221        0.88425071386789
H           -0.90188986899568       -1.93460756393553       -2.27140202109498
H           -1.56935558047255       -1.93922474156391       -0.62424309053052
H           -3.19374348511020       -1.30813928986658       -3.16256748825660
H           -3.15930020129727       -2.88214636829064       -2.34449249356956
H           -3.85289222798901       -1.47855513731716       -1.51568797845210
