 xtb: 6.7.1 (edcfbbe)
          04092505203D

 41 40  0     0  0            999 V2000
    1.5205   -2.0896    1.8273 C   0  0  0  0  0  0  0  0  0  0  0  0
    2.9850   -1.8446    1.5272 C   0  0  0  0  0  0  0  0  0  0  0  0
    3.2330   -0.4927    1.1034 O   0  0  0  0  0  0  0  0  0  0  0  0
    2.7856    0.0526   -0.3237 P   0  0  0  0  0  0  0  0  0  0  0  0
    2.9752   -1.2221   -1.7939 S   0  0  0  0  0  0  0  0  0  0  0  0
    3.7135    1.3101   -0.5242 O   0  0  0  0  0  0  0  0  0  0  0  0
    3.7128    2.5009    0.2988 C   0  0  0  0  0  0  0  0  0  0  0  0
    4.5626    2.3276    1.5407 C   0  0  0  0  0  0  0  0  0  0  0  0
    0.8341    0.9059   -0.0406 S   0  0  0  0  0  0  0  0  0  0  0  0
   -0.0749    0.0157   -1.3283 C   0  0  0  0  0  0  0  0  0  0  0  0
   -1.2282   -1.2053   -0.6617 S   0  0  0  0  0  0  0  0  0  0  0  0
   -2.7423    0.2019   -0.1311 P   0  0  0  0  0  0  0  0  0  0  0  0
   -3.0918    1.6071   -1.4452 S   0  0  0  0  0  0  0  0  0  0  0  0
   -2.2912    0.7998    1.2533 O   0  0  0  0  0  0  0  0  0  0  0  0
   -2.0223   -0.0172    2.4235 C   0  0  0  0  0  0  0  0  0  0  0  0
   -1.0566    0.7454    3.3062 C   0  0  0  0  0  0  0  0  0  0  0  0
   -3.9800   -0.7060    0.2839 O   0  0  0  0  0  0  0  0  0  0  0  0
   -4.9610   -1.1735   -0.6597 C   0  0  0  0  0  0  0  0  0  0  0  0
   -4.3722   -2.1240   -1.6817 C   0  0  0  0  0  0  0  0  0  0  0  0
    1.1490   -1.3432    2.5245 H   0  0  0  0  0  0  0  0  0  0  0  0
    0.9364   -2.0461    0.9085 H   0  0  0  0  0  0  0  0  0  0  0  0
    1.4052   -3.0770    2.2627 H   0  0  0  0  0  0  0  0  0  0  0  0
    3.3383   -2.5236    0.7449 H   0  0  0  0  0  0  0  0  0  0  0  0
    3.6022   -1.9553    2.4199 H   0  0  0  0  0  0  0  0  0  0  0  0
    4.1219    3.2696   -0.3593 H   0  0  0  0  0  0  0  0  0  0  0  0
    2.6791    2.7484    0.5565 H   0  0  0  0  0  0  0  0  0  0  0  0
    4.1289    1.5797    2.1981 H   0  0  0  0  0  0  0  0  0  0  0  0
    5.5653    2.0133    1.2638 H   0  0  0  0  0  0  0  0  0  0  0  0
    4.6171    3.2768    2.0648 H   0  0  0  0  0  0  0  0  0  0  0  0
    0.6382   -0.5210   -1.9588 H   0  0  0  0  0  0  0  0  0  0  0  0
   -0.6424    0.7489   -1.9030 H   0  0  0  0  0  0  0  0  0  0  0  0
   -2.9752   -0.1955    2.9247 H   0  0  0  0  0  0  0  0  0  0  0  0
   -1.6029   -0.9728    2.0948 H   0  0  0  0  0  0  0  0  0  0  0  0
   -1.4924    1.6961    3.5989 H   0  0  0  0  0  0  0  0  0  0  0  0
   -0.8440    0.1580    4.1938 H   0  0  0  0  0  0  0  0  0  0  0  0
   -0.1340    0.9424    2.7657 H   0  0  0  0  0  0  0  0  0  0  0  0
   -5.7062   -1.6662   -0.0335 H   0  0  0  0  0  0  0  0  0  0  0  0
   -5.4051   -0.3041   -1.1539 H   0  0  0  0  0  0  0  0  0  0  0  0
   -3.8287   -2.9250   -1.1867 H   0  0  0  0  0  0  0  0  0  0  0  0
   -5.1727   -2.5471   -2.2800 H   0  0  0  0  0  0  0  0  0  0  0  0
   -3.6885   -1.5890   -2.3394 H   0  0  0  0  0  0  0  0  0  0  0  0
  1  2  1  0  0  0  0
  2  3  1  0  0  0  0
  3  4  2  0  0  0  0
  4  5  2  0  0  0  0
  4  6  2  0  0  0  0
  6  7  1  0  0  0  0
  7  8  1  0  0  0  0
  4  9  1  0  0  0  0
  9 10  1  0  0  0  0
 10 11  1  0  0  0  0
 11 12  1  0  0  0  0
 12 13  2  0  0  0  0
 12 14  2  0  0  0  0
 14 15  1  0  0  0  0
 15 16  1  0  0  0  0
 12 17  2  0  0  0  0
 17 18  1  0  0  0  0
 18 19  1  0  0  0  0
  1 20  1  0  0  0  0
  1 21  1  0  0  0  0
  1 22  1  0  0  0  0
  2 23  1  0  0  0  0
  2 24  1  0  0  0  0
  7 25  1  0  0  0  0
  7 26  1  0  0  0  0
  8 27  1  0  0  0  0
  8 28  1  0  0  0  0
  8 29  1  0  0  0  0
 10 30  1  0  0  0  0
 10 31  1  0  0  0  0
 15 32  1  0  0  0  0
 15 33  1  0  0  0  0
 16 34  1  0  0  0  0
 16 35  1  0  0  0  0
 16 36  1  0  0  0  0
 18 37  1  0  0  0  0
 18 38  1  0  0  0  0
 19 39  1  0  0  0  0
 19 40  1  0  0  0  0
 19 41  1  0  0  0  0
M  END
