 xtb: 6.7.1 (edcfbbe)
          04092509483D

 38 37  0     0  0            999 V2000
    2.0178   -3.3136   -2.7287 C   0  0  0  0  0  0  0  0  0  0  0  0
    3.1154   -2.9362   -1.7466 C   0  0  0  0  0  0  0  0  0  0  0  0
    2.8500   -1.6471   -1.1610 O   0  0  0  0  0  0  0  0  0  0  0  0
    2.1402   -1.5927   -0.0515 C   0  0  0  0  0  0  0  0  0  0  0  0
    1.7371   -2.5554    0.5612 O   0  0  0  0  0  0  0  0  0  0  0  0
    1.8698   -0.1561    0.3559 C   0  0  0  0  0  0  0  0  0  0  0  0
    0.9532    0.4950   -0.6780 C   0  0  0  0  0  0  0  0  0  0  0  0
    1.4834    0.5949   -1.6309 H   0  0  0  0  0  0  0  0  0  0  0  0
    0.4696    1.8760   -0.2651 C   0  0  0  0  0  0  0  0  0  0  0  0
   -0.6377    2.2947   -0.5339 O   0  0  0  0  0  0  0  0  0  0  0  0
    1.4039    2.5431    0.3563 O   0  0  0  0  0  0  0  0  0  0  0  0
    1.1197    3.8918    0.7861 C   0  0  0  0  0  0  0  0  0  0  0  0
    2.3443    4.4117    1.5132 C   0  0  0  0  0  0  0  0  0  0  0  0
   -0.4905   -0.5392   -1.1083 S   0  0  0  0  0  0  0  0  0  0  0  0
   -1.8235   -0.1216    0.4870 P   0  0  0  0  0  0  0  0  0  0  0  0
   -1.1066    0.5550    2.1761 S   0  0  0  0  0  0  0  0  0  0  0  0
   -3.0114    0.7654   -0.0527 O   0  0  0  0  0  0  0  0  0  0  0  0
   -3.7086    0.4801   -1.2812 C   0  0  0  0  0  0  0  0  0  0  0  0
   -2.5803   -1.5336    0.6097 O   0  0  0  0  0  0  0  0  0  0  0  0
   -1.9621   -2.6943    1.1733 C   0  0  0  0  0  0  0  0  0  0  0  0
    2.2534   -4.2721   -3.1792 H   0  0  0  0  0  0  0  0  0  0  0  0
    1.0630   -3.3877   -2.2132 H   0  0  0  0  0  0  0  0  0  0  0  0
    1.9341   -2.5611   -3.5075 H   0  0  0  0  0  0  0  0  0  0  0  0
    4.0761   -2.8196   -2.2485 H   0  0  0  0  0  0  0  0  0  0  0  0
    3.1915   -3.6746   -0.9436 H   0  0  0  0  0  0  0  0  0  0  0  0
    2.8062    0.4006    0.3884 H   0  0  0  0  0  0  0  0  0  0  0  0
    1.4052   -0.1520    1.3433 H   0  0  0  0  0  0  0  0  0  0  0  0
    0.8866    4.4893   -0.1003 H   0  0  0  0  0  0  0  0  0  0  0  0
    0.2373    3.8678    1.4328 H   0  0  0  0  0  0  0  0  0  0  0  0
    3.2061    4.3944    0.8529 H   0  0  0  0  0  0  0  0  0  0  0  0
    2.1619    5.4309    1.8369 H   0  0  0  0  0  0  0  0  0  0  0  0
    2.5519    3.7938    2.3816 H   0  0  0  0  0  0  0  0  0  0  0  0
   -4.4926    1.2304   -1.3401 H   0  0  0  0  0  0  0  0  0  0  0  0
   -4.1308   -0.5228   -1.2478 H   0  0  0  0  0  0  0  0  0  0  0  0
   -3.0220    0.5758   -2.1220 H   0  0  0  0  0  0  0  0  0  0  0  0
   -2.6831   -3.4984    1.0465 H   0  0  0  0  0  0  0  0  0  0  0  0
   -1.7539   -2.5298    2.2307 H   0  0  0  0  0  0  0  0  0  0  0  0
   -1.0316   -2.9295    0.6549 H   0  0  0  0  0  0  0  0  0  0  0  0
  1  2  1  0  0  0  0
  2  3  1  0  0  0  0
  3  4  1  0  0  0  0
  4  5  2  0  0  0  0
  4  6  1  0  0  0  0
  6  7  1  0  0  0  0
  7  8  1  0  0  0  0
  7  9  1  0  0  0  0
  9 10  2  0  0  0  0
  9 11  4  0  0  0  0
 11 12  1  0  0  0  0
 12 13  1  0  0  0  0
  7 14  1  0  0  0  0
 14 15  1  0  0  0  0
 15 16  2  0  0  0  0
 15 17  2  0  0  0  0
 17 18  1  0  0  0  0
 15 19  1  0  0  0  0
 19 20  1  0  0  0  0
  1 21  1  0  0  0  0
  1 22  1  0  0  0  0
  1 23  1  0  0  0  0
  2 24  1  0  0  0  0
  2 25  1  0  0  0  0
  6 26  1  0  0  0  0
  6 27  1  0  0  0  0
 12 28  1  0  0  0  0
 12 29  1  0  0  0  0
 13 30  1  0  0  0  0
 13 31  1  0  0  0  0
 13 32  1  0  0  0  0
 18 33  1  0  0  0  0
 18 34  1  0  0  0  0
 18 35  1  0  0  0  0
 20 36  1  0  0  0  0
 20 37  1  0  0  0  0
 20 38  1  0  0  0  0
M  END
