 xtb: 6.7.1 (edcfbbe)
          04092505213D

 41 40  0     0  0            999 V2000
    5.1568   -0.7688   -2.4824 C   0  0  0  0  0  0  0  0  0  0  0  0
    3.7149   -0.9266   -2.0439 C   0  0  0  0  0  0  0  0  0  0  0  0
    3.4940   -0.0501   -0.9239 O   0  0  0  0  0  0  0  0  0  0  0  0
    2.0229    0.2883   -0.4114 P   0  0  0  0  0  0  0  0  0  0  0  0
    0.8657    0.9622   -1.8365 S   0  0  0  0  0  0  0  0  0  0  0  0
    2.3251    1.3547    0.6964 O   0  0  0  0  0  0  0  0  0  0  0  0
    2.7709    1.1052    2.0507 C   0  0  0  0  0  0  0  0  0  0  0  0
    3.9968    0.2216    2.1129 C   0  0  0  0  0  0  0  0  0  0  0  0
    1.3965   -1.5354    0.5054 S   0  0  0  0  0  0  0  0  0  0  0  0
   -0.0588   -1.9423   -0.5042 C   0  0  0  0  0  0  0  0  0  0  0  0
   -1.6051   -2.0269    0.4423 S   0  0  0  0  0  0  0  0  0  0  0  0
   -2.0168    0.0152    0.6791 P   0  0  0  0  0  0  0  0  0  0  0  0
   -0.7452    1.1981    1.5791 S   0  0  0  0  0  0  0  0  0  0  0  0
   -3.3809    0.0276    1.4869 O   0  0  0  0  0  0  0  0  0  0  0  0
   -4.5442   -0.7267    1.0554 C   0  0  0  0  0  0  0  0  0  0  0  0
   -5.7834    0.0631    1.4244 C   0  0  0  0  0  0  0  0  0  0  0  0
   -2.3652    0.3794   -0.8374 O   0  0  0  0  0  0  0  0  0  0  0  0
   -2.5477    1.7466   -1.2577 C   0  0  0  0  0  0  0  0  0  0  0  0
   -2.6198    1.7572   -2.7695 C   0  0  0  0  0  0  0  0  0  0  0  0
    5.8244   -1.0340   -1.6680 H   0  0  0  0  0  0  0  0  0  0  0  0
    5.3448   -1.4203   -3.3294 H   0  0  0  0  0  0  0  0  0  0  0  0
    5.3465    0.2608   -2.7721 H   0  0  0  0  0  0  0  0  0  0  0  0
    3.5058   -1.9511   -1.7223 H   0  0  0  0  0  0  0  0  0  0  0  0
    3.0203   -0.6519   -2.8453 H   0  0  0  0  0  0  0  0  0  0  0  0
    2.9710    2.1082    2.4302 H   0  0  0  0  0  0  0  0  0  0  0  0
    1.9321    0.6720    2.6027 H   0  0  0  0  0  0  0  0  0  0  0  0
    3.7608   -0.7790    1.7535 H   0  0  0  0  0  0  0  0  0  0  0  0
    4.7914    0.6406    1.5010 H   0  0  0  0  0  0  0  0  0  0  0  0
    4.3302    0.1551    3.1439 H   0  0  0  0  0  0  0  0  0  0  0  0
    0.0858   -2.9414   -0.9065 H   0  0  0  0  0  0  0  0  0  0  0  0
   -0.1566   -1.1967   -1.2987 H   0  0  0  0  0  0  0  0  0  0  0  0
   -4.4808   -0.8951   -0.0227 H   0  0  0  0  0  0  0  0  0  0  0  0
   -4.5133   -1.6871    1.5739 H   0  0  0  0  0  0  0  0  0  0  0  0
   -6.6637   -0.5117    1.1550 H   0  0  0  0  0  0  0  0  0  0  0  0
   -5.7929    0.2581    2.4929 H   0  0  0  0  0  0  0  0  0  0  0  0
   -5.8003    1.0134    0.8972 H   0  0  0  0  0  0  0  0  0  0  0  0
   -3.4663    2.1282   -0.8025 H   0  0  0  0  0  0  0  0  0  0  0  0
   -1.7010    2.3390   -0.8955 H   0  0  0  0  0  0  0  0  0  0  0  0
   -2.8135    2.7695   -3.1081 H   0  0  0  0  0  0  0  0  0  0  0  0
   -1.6724    1.4179   -3.1812 H   0  0  0  0  0  0  0  0  0  0  0  0
   -3.4143    1.1000   -3.1101 H   0  0  0  0  0  0  0  0  0  0  0  0
  1  2  1  0  0  0  0
  2  3  1  0  0  0  0
  3  4  2  0  0  0  0
  4  5  2  0  0  0  0
  4  6  2  0  0  0  0
  6  7  1  0  0  0  0
  7  8  1  0  0  0  0
  4  9  1  0  0  0  0
  9 10  1  0  0  0  0
 10 11  1  0  0  0  0
 11 12  1  0  0  0  0
 12 13  2  0  0  0  0
 12 14  2  0  0  0  0
 14 15  1  0  0  0  0
 15 16  1  0  0  0  0
 12 17  1  0  0  0  0
 17 18  1  0  0  0  0
 18 19  1  0  0  0  0
  1 20  1  0  0  0  0
  1 21  1  0  0  0  0
  1 22  1  0  0  0  0
  2 23  1  0  0  0  0
  2 24  1  0  0  0  0
  7 25  1  0  0  0  0
  7 26  1  0  0  0  0
  8 27  1  0  0  0  0
  8 28  1  0  0  0  0
  8 29  1  0  0  0  0
 10 30  1  0  0  0  0
 10 31  1  0  0  0  0
 15 32  1  0  0  0  0
 15 33  1  0  0  0  0
 16 34  1  0  0  0  0
 16 35  1  0  0  0  0
 16 36  1  0  0  0  0
 18 37  1  0  0  0  0
 18 38  1  0  0  0  0
 19 39  1  0  0  0  0
 19 40  1  0  0  0  0
 19 41  1  0  0  0  0
M  END
