41
 xtb: 6.7.1 (edcfbbe)
C            5.80800751442623       -0.08214095568854       -0.40926689018311
C            4.67876187288521       -1.05399734333057       -0.18199710986615
O            3.54827632637546       -0.34497089475906        0.44213098175660
P            2.18815089079286       -0.06350370973677       -0.37340798996692
S            2.35216793829032        0.52621889686318       -2.22191870495924
O            1.42543899664867        0.91783092943698        0.63931501031116
C            1.48434153503400        2.38162592628399        0.49718590717463
C            2.81777989469686        2.92763769899955        0.94435682550365
S            1.20676385007731       -1.91309513902748       -0.06213063424545
C           -0.24472066138921       -1.77855092815272       -1.19548890644452
S           -1.87894277515424       -1.82598041229462       -0.36468479187154
P           -2.30349949947348        0.23549263133581       -0.04316231659180
S           -1.90513413699749        1.42803595706215       -1.52544468668876
O           -1.55866163812656        0.70907983439622        1.29370451143098
C           -1.28374535135515       -0.12782893199347        2.47287023964719
C           -2.52687261866001       -0.44852439091719        3.26443471814960
O           -3.83731235265883        0.11908581362368        0.43264608696083
C           -4.97712539276335        0.34598354778374       -0.46977698453991
C           -5.22738289474114       -0.82690877639350       -1.38384424796633
H            6.10678390543895        0.39330426454492        0.52941268440920
H            6.66969937057335       -0.62525676141283       -0.81076145276360
H            5.52011491702754        0.69105736879814       -1.12706451186763
H            4.94863084752871       -1.83905402809021        0.52827771501812
H            4.34835855409847       -1.51928935499264       -1.11571771532581
H            1.26140949575247        2.63376500251650       -0.54367870877692
H            0.66734286282029        2.73101200997292        1.13180558298047
H            2.77722717028697        4.02136376522884        0.91052843022823
H            3.04215639536147        2.62156122250010        1.97019216616956
H            3.62891139565814        2.59713248793330        0.28808093018249
H           -0.22546517253296       -2.65281322246574       -1.85012040023421
H           -0.15851324530796       -0.87490103314985       -1.80963632240981
H           -0.76487966536438       -1.03040376380536        2.13718528913431
H           -0.58751146466498        0.48352091381059        3.05057458749731
H           -3.18763018855270       -1.13608016790740        2.72973407009147
H           -2.22108387385539       -0.93004213511539        4.19917009599860
H           -3.08092466430402        0.46134001555702        3.51202059887526
H           -5.81144039326250        0.50564156952204        0.21611060354213
H           -4.79047816821361        1.26838354474127       -1.02741855166249
H           -6.15026094669329       -0.63798459048459       -1.94214901274715
H           -4.41550039857079       -0.95882170083828       -2.10439692742317
H           -5.35374511008572       -1.75133361321840       -0.81276192329059
