41
 xtb: 6.7.1 (edcfbbe)
C            1.75309090198774        3.17860096950611        0.51259968314638
C            1.74245836348713        1.90006462074856        1.30821539897550
O            2.61631950170673        0.94324652368355        0.61527641431267
P            2.70686948381592       -0.56962800870380        1.15646750385221
S            3.18283659497214       -0.83908328526065        3.02394142767351
O            3.72483228147137       -1.08147014981728        0.02566816268064
C            4.54061414555571       -2.29342060604041        0.19393944398954
C            3.75495218238024       -3.55161121140171       -0.08028344599198
S            0.82606372901508       -1.46847172733062        0.81185547002532
C            0.63947432010244       -1.28497881396009       -1.01143087489306
S           -0.00400934144280        0.31873421394820       -1.63635944434333
P           -1.94447755116507        0.32162996901101       -0.79044131619356
S           -2.80662571604064       -1.41821122254456       -0.63185318087192
O           -2.67216766684222        1.43231926295723       -1.70056372489166
C           -3.14596390114774        1.10789399008154       -3.05665132266097
C           -4.60804571904430        1.46134284984081       -3.14563706185659
O           -1.73141098325131        1.15569010051315        0.56387872710608
C           -2.64926522889363        1.03355508872322        1.70831657829578
C           -3.95612532087946        1.74121371442048        1.45245690220859
H            1.36224686690218        3.01619442507762       -0.49557782848888
H            1.11491552036246        3.91054408040561        1.01727239767382
H            2.76386314289665        3.59060463400855        0.44438382400438
H            0.73594419898910        1.47290773930718        1.36862295019649
H            2.13617628522948        2.04730837963168        2.31877703361002
H            5.34476509279554       -2.15668985265728       -0.53166904862091
H            4.96550777303878       -2.28523793322013        1.20215016659318
H            4.44710654894069       -4.39993790333146       -0.05995002648339
H            2.98531183142052       -3.72291784988848        0.67688913188324
H            3.28477881550358       -3.51531640664793       -1.06757051891632
H           -0.03849935973371       -2.08497333521323       -1.32076704518217
H            1.60685811065481       -1.42686918269836       -1.50139636471452
H           -2.53498225077179        1.70306113925548       -3.74012111245948
H           -2.97680903152579        0.04580533466853       -3.25864620418906
H           -4.76952206942535        2.51762260802622       -2.91247778219348
H           -4.95866913135542        1.27555880508808       -4.16583185591021
H           -5.19886335136317        0.84924453499165       -2.45814999062191
H           -2.79043075476533       -0.03029792055252        1.92110771468935
H           -2.09240665213200        1.49088400691232        2.52854619813792
H           -4.56585225098462        1.68835248469108        2.36040481636852
H           -3.79072844978456        2.79419545931286        1.20775262863692
H           -4.51593616220182        1.26865606297612        0.63965218361422
