 xtb: 6.7.1 (edcfbbe)
          04092505213D

 41 40  0     0  0            999 V2000
    4.3417   -1.2148   -2.3089 C   0  0  0  0  0  0  0  0  0  0  0  0
    4.8750   -0.9306   -0.9198 C   0  0  0  0  0  0  0  0  0  0  0  0
    3.8441   -0.9781    0.0832 O   0  0  0  0  0  0  0  0  0  0  0  0
    2.6521    0.0711    0.1377 P   0  0  0  0  0  0  0  0  0  0  0  0
    3.1215    1.9308   -0.2422 S   0  0  0  0  0  0  0  0  0  0  0  0
    2.0947   -0.0890    1.6020 O   0  0  0  0  0  0  0  0  0  0  0  0
    1.6587   -1.3440    2.1805 C   0  0  0  0  0  0  0  0  0  0  0  0
    2.7771   -1.9954    2.9672 C   0  0  0  0  0  0  0  0  0  0  0  0
    1.1539   -0.7831   -1.1212 S   0  0  0  0  0  0  0  0  0  0  0  0
    0.0639    0.6571   -1.0916 C   0  0  0  0  0  0  0  0  0  0  0  0
   -0.8998    0.7825    0.4371 S   0  0  0  0  0  0  0  0  0  0  0  0
   -2.8483    0.2970   -0.3294 P   0  0  0  0  0  0  0  0  0  0  0  0
   -2.9740   -0.0390   -2.2497 S   0  0  0  0  0  0  0  0  0  0  0  0
   -3.7321    1.5183    0.1268 O   0  0  0  0  0  0  0  0  0  0  0  0
   -3.8438    1.9193    1.5172 C   0  0  0  0  0  0  0  0  0  0  0  0
   -4.1419    3.4034    1.5529 C   0  0  0  0  0  0  0  0  0  0  0  0
   -3.4048   -0.8602    0.6134 O   0  0  0  0  0  0  0  0  0  0  0  0
   -3.2029   -2.2573    0.3354 C   0  0  0  0  0  0  0  0  0  0  0  0
   -1.7572   -2.6726    0.5145 C   0  0  0  0  0  0  0  0  0  0  0  0
    3.6977   -0.4001   -2.6367 H   0  0  0  0  0  0  0  0  0  0  0  0
    5.1735   -1.3025   -3.0006 H   0  0  0  0  0  0  0  0  0  0  0  0
    3.7685   -2.1386   -2.3141 H   0  0  0  0  0  0  0  0  0  0  0  0
    5.3464    0.0561   -0.8828 H   0  0  0  0  0  0  0  0  0  0  0  0
    5.5853   -1.6935   -0.5982 H   0  0  0  0  0  0  0  0  0  0  0  0
    0.8253   -1.0620    2.8269 H   0  0  0  0  0  0  0  0  0  0  0  0
    1.3057   -1.9997    1.3796 H   0  0  0  0  0  0  0  0  0  0  0  0
    3.1506   -1.3088    3.7219 H   0  0  0  0  0  0  0  0  0  0  0  0
    2.3955   -2.8885    3.4520 H   0  0  0  0  0  0  0  0  0  0  0  0
    3.5945   -2.2677    2.3051 H   0  0  0  0  0  0  0  0  0  0  0  0
   -0.6221    0.5630   -1.9368 H   0  0  0  0  0  0  0  0  0  0  0  0
    0.6767    1.5558   -1.1738 H   0  0  0  0  0  0  0  0  0  0  0  0
   -4.6500    1.3336    1.9623 H   0  0  0  0  0  0  0  0  0  0  0  0
   -2.9031    1.6882    2.0259 H   0  0  0  0  0  0  0  0  0  0  0  0
   -4.2731    3.7164    2.5837 H   0  0  0  0  0  0  0  0  0  0  0  0
   -3.3216    3.9619    1.1102 H   0  0  0  0  0  0  0  0  0  0  0  0
   -5.0491    3.6130    0.9936 H   0  0  0  0  0  0  0  0  0  0  0  0
   -3.8573   -2.7600    1.0491 H   0  0  0  0  0  0  0  0  0  0  0  0
   -3.5399   -2.4594   -0.6859 H   0  0  0  0  0  0  0  0  0  0  0  0
   -1.1373   -2.2158   -0.2565 H   0  0  0  0  0  0  0  0  0  0  0  0
   -1.3969   -2.3651    1.4929 H   0  0  0  0  0  0  0  0  0  0  0  0
   -1.6810   -3.7514    0.4252 H   0  0  0  0  0  0  0  0  0  0  0  0
  1  2  1  0  0  0  0
  2  3  1  0  0  0  0
  3  4  2  0  0  0  0
  4  5  2  0  0  0  0
  4  6  2  0  0  0  0
  6  7  1  0  0  0  0
  7  8  1  0  0  0  0
  4  9  1  0  0  0  0
  9 10  1  0  0  0  0
 10 11  1  0  0  0  0
 11 12  1  0  0  0  0
 12 13  2  0  0  0  0
 12 14  2  0  0  0  0
 14 15  1  0  0  0  0
 15 16  1  0  0  0  0
 12 17  2  0  0  0  0
 17 18  1  0  0  0  0
 18 19  1  0  0  0  0
  1 20  1  0  0  0  0
  1 21  1  0  0  0  0
  1 22  1  0  0  0  0
  2 23  1  0  0  0  0
  2 24  1  0  0  0  0
  7 25  1  0  0  0  0
  7 26  1  0  0  0  0
  8 27  1  0  0  0  0
  8 28  1  0  0  0  0
  8 29  1  0  0  0  0
 10 30  1  0  0  0  0
 10 31  1  0  0  0  0
 15 32  1  0  0  0  0
 15 33  1  0  0  0  0
 16 34  1  0  0  0  0
 16 35  1  0  0  0  0
 16 36  1  0  0  0  0
 18 37  1  0  0  0  0
 18 38  1  0  0  0  0
 19 39  1  0  0  0  0
 19 40  1  0  0  0  0
 19 41  1  0  0  0  0
M  END
