 xtb: 6.7.1 (edcfbbe)
          04092507313D

 38 37  0     0  0            999 V2000
    3.0711   -3.7814    1.1813 C   0  0  0  0  0  0  0  0  0  0  0  0
    2.4875   -3.1788   -0.0864 C   0  0  0  0  0  0  0  0  0  0  0  0
    2.5604   -1.7407   -0.0600 O   0  0  0  0  0  0  0  0  0  0  0  0
    1.6187   -1.0750    0.5668 C   0  0  0  0  0  0  0  0  0  0  0  0
    0.6783   -1.5878    1.1433 O   0  0  0  0  0  0  0  0  0  0  0  0
    1.8109    0.4222    0.4572 C   0  0  0  0  0  0  0  0  0  0  0  0
    0.5845    1.0176   -0.2240 C   0  0  0  0  0  0  0  0  0  0  0  0
    0.3822    0.5172   -1.1800 H   0  0  0  0  0  0  0  0  0  0  0  0
    0.6581    2.5178   -0.4768 C   0  0  0  0  0  0  0  0  0  0  0  0
   -0.0790    3.0756   -1.2572 O   0  0  0  0  0  0  0  0  0  0  0  0
    1.5672    3.1034    0.2641 O   0  0  0  0  0  0  0  0  0  0  0  0
    1.7276    4.5333    0.1468 C   0  0  0  0  0  0  0  0  0  0  0  0
    2.6796    4.8825   -0.9856 C   0  0  0  0  0  0  0  0  0  0  0  0
   -0.9290    0.7986    0.7909 S   0  0  0  0  0  0  0  0  0  0  0  0
   -1.7071   -0.9728   -0.1057 P   0  0  0  0  0  0  0  0  0  0  0  0
   -0.8114   -1.6591   -1.7042 S   0  0  0  0  0  0  0  0  0  0  0  0
   -1.9791   -2.0670    0.9911 O   0  0  0  0  0  0  0  0  0  0  0  0
   -2.4558   -1.7485    2.3128 C   0  0  0  0  0  0  0  0  0  0  0  0
   -3.2260   -0.5219   -0.3974 O   0  0  0  0  0  0  0  0  0  0  0  0
   -3.5230    0.4494   -1.4015 C   0  0  0  0  0  0  0  0  0  0  0  0
    3.0661   -4.8630    1.0964 H   0  0  0  0  0  0  0  0  0  0  0  0
    4.0916   -3.4364    1.3230 H   0  0  0  0  0  0  0  0  0  0  0  0
    2.4731   -3.4927    2.0425 H   0  0  0  0  0  0  0  0  0  0  0  0
    1.4403   -3.4701   -0.2149 H   0  0  0  0  0  0  0  0  0  0  0  0
    3.0638   -3.4603   -0.9676 H   0  0  0  0  0  0  0  0  0  0  0  0
    2.7024    0.6248   -0.1348 H   0  0  0  0  0  0  0  0  0  0  0  0
    1.9185    0.8498    1.4549 H   0  0  0  0  0  0  0  0  0  0  0  0
    0.7444    4.9807   -0.0209 H   0  0  0  0  0  0  0  0  0  0  0  0
    2.1282    4.8384    1.1133 H   0  0  0  0  0  0  0  0  0  0  0  0
    2.2629    4.5609   -1.9373 H   0  0  0  0  0  0  0  0  0  0  0  0
    2.8245    5.9574   -1.0111 H   0  0  0  0  0  0  0  0  0  0  0  0
    3.6390    4.3958   -0.8350 H   0  0  0  0  0  0  0  0  0  0  0  0
   -1.6697   -1.2320    2.8626 H   0  0  0  0  0  0  0  0  0  0  0  0
   -2.6761   -2.7094    2.7703 H   0  0  0  0  0  0  0  0  0  0  0  0
   -3.3502   -1.1307    2.2533 H   0  0  0  0  0  0  0  0  0  0  0  0
   -3.0882    1.4147   -1.1364 H   0  0  0  0  0  0  0  0  0  0  0  0
   -4.6071    0.5147   -1.4358 H   0  0  0  0  0  0  0  0  0  0  0  0
   -3.1286    0.1241   -2.3657 H   0  0  0  0  0  0  0  0  0  0  0  0
  1  2  1  0  0  0  0
  2  3  1  0  0  0  0
  3  4  4  0  0  0  0
  4  5  2  0  0  0  0
  4  6  1  0  0  0  0
  6  7  1  0  0  0  0
  7  8  1  0  0  0  0
  7  9  1  0  0  0  0
  9 10  2  0  0  0  0
  9 11  4  0  0  0  0
 11 12  1  0  0  0  0
 12 13  1  0  0  0  0
  7 14  1  0  0  0  0
 14 15  1  0  0  0  0
 15 16  2  0  0  0  0
 15 17  2  0  0  0  0
 17 18  1  0  0  0  0
 15 19  1  0  0  0  0
 19 20  1  0  0  0  0
  1 21  1  0  0  0  0
  1 22  1  0  0  0  0
  1 23  1  0  0  0  0
  2 24  1  0  0  0  0
  2 25  1  0  0  0  0
  6 26  1  0  0  0  0
  6 27  1  0  0  0  0
 12 28  1  0  0  0  0
 12 29  1  0  0  0  0
 13 30  1  0  0  0  0
 13 31  1  0  0  0  0
 13 32  1  0  0  0  0
 18 33  1  0  0  0  0
 18 34  1  0  0  0  0
 18 35  1  0  0  0  0
 20 36  1  0  0  0  0
 20 37  1  0  0  0  0
 20 38  1  0  0  0  0
M  END
