41
 xtb: 6.7.1 (edcfbbe)
C            5.16862070854304       -2.10199017899499       -1.92024206614813
C            4.39195575744596       -0.87233282020320       -1.52822356965863
O            3.41704717752360       -1.28531233765076       -0.50807676094744
P            2.37828449980121       -0.22134147208688        0.11402883311521
S            3.08473433867133        1.51184263338581        0.65170318805861
O            1.69240208249882       -1.11381947010846        1.25812480787017
C            2.17353705745160       -1.09839081016777        2.65000252845508
C            3.48836701512146       -1.82253489960119        2.79820076965470
S            0.88310435443175       -0.20186743450976       -1.38914768952765
C            0.00645486468786        1.35872492750682       -0.98667532265133
S           -1.02576964337856        1.36601155931086        0.52785366968729
P           -2.77975204654696        0.31596788154203       -0.08175410190768
S           -2.98457942639685        0.13636859675915       -2.00886923979217
O           -3.94073590071168        1.09271485719301        0.71591863927200
C           -4.45303676420306        2.36965518892364        0.20184628244929
C           -5.40556323774531        2.91026627371589        1.23613065731904
O           -2.84121001382039       -1.00864558769962        0.82354427022227
C           -1.77281744933933       -2.01824548482347        0.81954607089193
C           -1.97735185573886       -3.04981581065409       -0.26148524675056
H            5.69276861451639       -2.52313032226327       -1.05762716675933
H            4.51004526290559       -2.86370618028936       -2.34680022324017
H            5.91114504527060       -1.82513387136924       -2.67470391691950
H            3.84807621676481       -0.44762611766379       -2.37868508315495
H            5.03602625858148       -0.10388893680991       -1.09074752707318
H            2.23652107241188       -0.05653619773561        2.97834803047785
H            1.37200597875376       -1.59723850354061        3.19811205430538
H            3.42027324891298       -2.84181577799542        2.40786043602723
H            4.29901633986893       -1.29644336668293        2.28560144376600
H            3.73820090207476       -1.87636504660517        3.86279514327804
H           -0.62107034489892        1.57900639228365       -1.85461007672103
H            0.74033605917447        2.15861851169030       -0.84908509381819
H           -3.60727109528137        3.04645626476064        0.03855057319182
H           -4.95172625297720        2.17753291350239       -0.75262216251140
H           -4.89338787028798        3.08952441807578        2.18552540699126
H           -5.81362009791123        3.86022324219586        0.87810134289061
H           -6.23602728649868        2.21821310298681        1.40180614245485
H           -0.80718484146218       -1.51138290846659        0.72696013237297
H           -1.83592379238031       -2.46313949339105        1.81492418880546
H           -1.85995943651557       -2.61871429529116       -1.25810257583032
H           -1.22503666211269       -3.83492415013075       -0.13429359800259
H           -2.96755890016525       -3.50728522066799       -0.18321741787760
