 xtb: 6.7.1 (edcfbbe)
          04092505213D

 41 40  0     0  0            999 V2000
    4.8928    1.3544   -0.0398 C   0  0  0  0  0  0  0  0  0  0  0  0
    3.5677    1.4706   -0.7626 C   0  0  0  0  0  0  0  0  0  0  0  0
    2.9135    0.1895   -0.8499 O   0  0  0  0  0  0  0  0  0  0  0  0
    2.2308   -0.4890    0.4091 P   0  0  0  0  0  0  0  0  0  0  0  0
    1.6595    0.7757    1.8014 S   0  0  0  0  0  0  0  0  0  0  0  0
    3.3458   -1.5273    0.8587 O   0  0  0  0  0  0  0  0  0  0  0  0
    3.1085   -2.7581    1.5656 C   0  0  0  0  0  0  0  0  0  0  0  0
    2.1534   -2.5960    2.7299 C   0  0  0  0  0  0  0  0  0  0  0  0
    0.7772   -1.7159   -0.5466 S   0  0  0  0  0  0  0  0  0  0  0  0
    0.1864   -0.5384   -1.7951 C   0  0  0  0  0  0  0  0  0  0  0  0
   -0.4289    1.0136   -1.1063 S   0  0  0  0  0  0  0  0  0  0  0  0
   -2.4774    0.4540   -0.7887 P   0  0  0  0  0  0  0  0  0  0  0  0
   -3.0718   -1.1500   -1.7323 S   0  0  0  0  0  0  0  0  0  0  0  0
   -3.2928    1.7065   -1.2766 O   0  0  0  0  0  0  0  0  0  0  0  0
   -3.0627    3.0540   -0.7924 C   0  0  0  0  0  0  0  0  0  0  0  0
   -4.0748    3.4196    0.2736 C   0  0  0  0  0  0  0  0  0  0  0  0
   -2.6906    0.5296    0.7868 O   0  0  0  0  0  0  0  0  0  0  0  0
   -1.9856   -0.2274    1.7832 C   0  0  0  0  0  0  0  0  0  0  0  0
   -2.2477   -1.7162    1.6846 C   0  0  0  0  0  0  0  0  0  0  0  0
    5.5263    0.6209   -0.5311 H   0  0  0  0  0  0  0  0  0  0  0  0
    5.3891    2.3195   -0.0340 H   0  0  0  0  0  0  0  0  0  0  0  0
    4.7198    1.0354    0.9877 H   0  0  0  0  0  0  0  0  0  0  0  0
    3.6936    1.7783   -1.8013 H   0  0  0  0  0  0  0  0  0  0  0  0
    2.9017    2.1699   -0.2463 H   0  0  0  0  0  0  0  0  0  0  0  0
    2.7206   -3.4875    0.8489 H   0  0  0  0  0  0  0  0  0  0  0  0
    4.1024   -3.0598    1.9011 H   0  0  0  0  0  0  0  0  0  0  0  0
    2.0668   -3.5392    3.2597 H   0  0  0  0  0  0  0  0  0  0  0  0
    2.5116   -1.8294    3.4132 H   0  0  0  0  0  0  0  0  0  0  0  0
    1.1694   -2.3031    2.3632 H   0  0  0  0  0  0  0  0  0  0  0  0
   -0.6270   -1.0460   -2.3194 H   0  0  0  0  0  0  0  0  0  0  0  0
    1.0033   -0.2904   -2.4669 H   0  0  0  0  0  0  0  0  0  0  0  0
   -2.0399    3.1278   -0.4124 H   0  0  0  0  0  0  0  0  0  0  0  0
   -3.1710    3.6839   -1.6772 H   0  0  0  0  0  0  0  0  0  0  0  0
   -5.0822    3.3055   -0.1172 H   0  0  0  0  0  0  0  0  0  0  0  0
   -3.9603    2.7743    1.1403 H   0  0  0  0  0  0  0  0  0  0  0  0
   -3.9191    4.4517    0.5717 H   0  0  0  0  0  0  0  0  0  0  0  0
   -0.9162   -0.0052    1.7048 H   0  0  0  0  0  0  0  0  0  0  0  0
   -2.3605    0.1774    2.7251 H   0  0  0  0  0  0  0  0  0  0  0  0
   -3.3179   -1.9079    1.6754 H   0  0  0  0  0  0  0  0  0  0  0  0
   -1.8153   -2.1265    0.7735 H   0  0  0  0  0  0  0  0  0  0  0  0
   -1.8017   -2.2128    2.5407 H   0  0  0  0  0  0  0  0  0  0  0  0
  1  2  1  0  0  0  0
  2  3  1  0  0  0  0
  3  4  2  0  0  0  0
  4  5  2  0  0  0  0
  4  6  2  0  0  0  0
  6  7  1  0  0  0  0
  7  8  1  0  0  0  0
  4  9  1  0  0  0  0
  9 10  1  0  0  0  0
 10 11  1  0  0  0  0
 11 12  1  0  0  0  0
 12 13  2  0  0  0  0
 12 14  2  0  0  0  0
 14 15  1  0  0  0  0
 15 16  1  0  0  0  0
 12 17  2  0  0  0  0
 17 18  1  0  0  0  0
 18 19  1  0  0  0  0
  1 20  1  0  0  0  0
  1 21  1  0  0  0  0
  1 22  1  0  0  0  0
  2 23  1  0  0  0  0
  2 24  1  0  0  0  0
  7 25  1  0  0  0  0
  7 26  1  0  0  0  0
  8 27  1  0  0  0  0
  8 28  1  0  0  0  0
  8 29  1  0  0  0  0
 10 30  1  0  0  0  0
 10 31  1  0  0  0  0
 15 32  1  0  0  0  0
 15 33  1  0  0  0  0
 16 34  1  0  0  0  0
 16 35  1  0  0  0  0
 16 36  1  0  0  0  0
 18 37  1  0  0  0  0
 18 38  1  0  0  0  0
 19 39  1  0  0  0  0
 19 40  1  0  0  0  0
 19 41  1  0  0  0  0
M  END
