41
 xtb: 6.7.1 (edcfbbe)
C            6.08264859414325       -0.08027871189909        0.01001014375986
C            5.19248747050967        0.66370520113918       -0.95474765092764
O            3.89283141613046       -0.00532882507680       -1.13886299227945
P            2.78359004120452       -0.00823995851336        0.02825246094017
S            2.64828798101353        1.61605928644787        1.09037819479809
O            3.13895918025174       -1.37186776227582        0.81323254513798
C            2.73209678265905       -1.60373205295693        2.20747925282326
C            1.25110676097912       -1.86368168325802        2.34164835271240
S            1.07328836341409       -0.64353157966942       -1.04111295033739
C            0.45134513502002        0.93989656835161       -1.73333735091760
S           -0.68172262841313        1.91397305219440       -0.66134446680266
P           -2.26331331675019        0.53579170988858       -0.40618224462254
S           -2.61364632898613       -0.67035176737725       -1.89712587273674
O           -3.45984135802181        1.51442088899147        0.04628095601160
C           -4.20032418894241        2.31150957604490       -0.94512822220370
C           -5.66889330437395        2.00666832418388       -0.79899966658091
O           -1.89479061965358       -0.14066878365119        1.00326530632023
C           -2.48104430689360       -1.42266960942980        1.42668567271335
C           -3.93278562041474       -1.27539463808817        1.81133302427492
H            7.06402943120048        0.40533677421245        0.02158743147522
H            5.68250803722653       -0.05977903691290        1.02818077166111
H            6.21620505797966       -1.12035991844478       -0.30085008833995
H            5.61290432738940        0.67828995617261       -1.96204580230015
H            5.00425201044357        1.69181684322090       -0.63089105306124
H            3.32119588213856       -2.47493951435891        2.50054716139177
H            3.04961578018773       -0.74133804600329        2.80127131989097
H            0.66146897450908       -0.97662731194489        2.09352312682533
H            0.93509591981457       -2.69327565778992        1.70222975315850
H            1.04134127580329       -2.13184252514778        3.38247826494470
H           -0.07260359101716        0.67446230286053       -2.65484659024784
H            1.28302940194490        1.60720123233858       -1.97620848349942
H           -3.97151519553144        3.35707749211909       -0.72307456687659
H           -3.83910564927215        2.07317341387007       -1.95035840244647
H           -5.87507834321320        0.95965903863164       -1.03922128528165
H           -6.01160765936507        2.21404055604671        0.21885418026235
H           -6.23516836768931        2.63991324614672       -1.48936847621511
H           -2.33864231280043       -2.14754894900787        0.61929996555079
H           -1.86470479434353       -1.71373746452773        2.27994261170986
H           -4.55546457059144       -1.01844126060373        0.94894158643119
H           -4.28632533604524       -2.23043635622886        2.21370254310050
H           -4.05727750818829       -0.50932560737385        2.58206416051514
