 xtb: 6.7.1 (edcfbbe)
          04092513593D

 41 40  0     0  0            999 V2000
    5.6523   -1.2106   -1.3695 C   0  0  0  0  0  0  0  0  0  0  0  0
    4.2186   -1.2559   -1.8626 C   0  0  0  0  0  0  0  0  0  0  0  0
    3.3121   -1.4956   -0.7645 O   0  0  0  0  0  0  0  0  0  0  0  0
    2.3815   -0.3561   -0.1570 P   0  0  0  0  0  0  0  0  0  0  0  0
    3.2884    1.3204    0.3143 S   0  0  0  0  0  0  0  0  0  0  0  0
    1.6814   -1.1310    1.0273 O   0  0  0  0  0  0  0  0  0  0  0  0
    2.2153   -1.1736    2.3740 C   0  0  0  0  0  0  0  0  0  0  0  0
    1.0654   -1.0564    3.3535 C   0  0  0  0  0  0  0  0  0  0  0  0
    0.8056   -0.2154   -1.5585 S   0  0  0  0  0  0  0  0  0  0  0  0
    0.1531    1.3980   -1.0374 C   0  0  0  0  0  0  0  0  0  0  0  0
   -0.8006    1.3382    0.4974 S   0  0  0  0  0  0  0  0  0  0  0  0
   -2.5292    0.3855   -0.3263 P   0  0  0  0  0  0  0  0  0  0  0  0
   -3.1360    1.0559   -2.0567 S   0  0  0  0  0  0  0  0  0  0  0  0
   -3.5818    0.4300    0.8645 O   0  0  0  0  0  0  0  0  0  0  0  0
   -4.5776    1.4595    1.0129 C   0  0  0  0  0  0  0  0  0  0  0  0
   -3.9891    2.7756    1.4778 C   0  0  0  0  0  0  0  0  0  0  0  0
   -2.1477   -1.1440   -0.3930 O   0  0  0  0  0  0  0  0  0  0  0  0
   -1.7450   -1.9031    0.7733 C   0  0  0  0  0  0  0  0  0  0  0  0
   -2.8541   -2.8443    1.1948 C   0  0  0  0  0  0  0  0  0  0  0  0
    5.7945   -0.3650   -0.7002 H   0  0  0  0  0  0  0  0  0  0  0  0
    5.8954   -2.1266   -0.8387 H   0  0  0  0  0  0  0  0  0  0  0  0
    6.3163   -1.1033   -2.2216 H   0  0  0  0  0  0  0  0  0  0  0  0
    4.0610   -2.0893   -2.5499 H   0  0  0  0  0  0  0  0  0  0  0  0
    3.9481   -0.3197   -2.3590 H   0  0  0  0  0  0  0  0  0  0  0  0
    2.7382   -2.1262    2.4805 H   0  0  0  0  0  0  0  0  0  0  0  0
    2.9281   -0.3517    2.4982 H   0  0  0  0  0  0  0  0  0  0  0  0
    0.3562   -1.8636    3.1939 H   0  0  0  0  0  0  0  0  0  0  0  0
    1.4543   -1.1167    4.3649 H   0  0  0  0  0  0  0  0  0  0  0  0
    0.5582   -0.1036    3.2220 H   0  0  0  0  0  0  0  0  0  0  0  0
   -0.4888    1.7451   -1.8478 H   0  0  0  0  0  0  0  0  0  0  0  0
    0.9846    2.0822   -0.8659 H   0  0  0  0  0  0  0  0  0  0  0  0
   -5.0923    1.5836    0.0552 H   0  0  0  0  0  0  0  0  0  0  0  0
   -5.2661    1.0478    1.7528 H   0  0  0  0  0  0  0  0  0  0  0  0
   -3.4005    2.6328    2.3801 H   0  0  0  0  0  0  0  0  0  0  0  0
   -3.3509    3.1975    0.7034 H   0  0  0  0  0  0  0  0  0  0  0  0
   -4.7981    3.4700    1.6834 H   0  0  0  0  0  0  0  0  0  0  0  0
   -0.8499   -2.4471    0.4622 H   0  0  0  0  0  0  0  0  0  0  0  0
   -1.4902   -1.2073    1.5771 H   0  0  0  0  0  0  0  0  0  0  0  0
   -3.7328   -2.2788    1.4938 H   0  0  0  0  0  0  0  0  0  0  0  0
   -3.1213   -3.4985    0.3695 H   0  0  0  0  0  0  0  0  0  0  0  0
   -2.5118   -3.4448    2.0320 H   0  0  0  0  0  0  0  0  0  0  0  0
  1  2  1  0  0  0  0
  2  3  1  0  0  0  0
  3  4  2  0  0  0  0
  4  5  2  0  0  0  0
  4  6  2  0  0  0  0
  6  7  1  0  0  0  0
  7  8  1  0  0  0  0
  4  9  1  0  0  0  0
  9 10  1  0  0  0  0
 10 11  1  0  0  0  0
 11 12  1  0  0  0  0
 12 13  2  0  0  0  0
 12 14  2  0  0  0  0
 14 15  1  0  0  0  0
 15 16  1  0  0  0  0
 12 17  2  0  0  0  0
 17 18  1  0  0  0  0
 18 19  1  0  0  0  0
  1 20  1  0  0  0  0
  1 21  1  0  0  0  0
  1 22  1  0  0  0  0
  2 23  1  0  0  0  0
  2 24  1  0  0  0  0
  7 25  1  0  0  0  0
  7 26  1  0  0  0  0
  8 27  1  0  0  0  0
  8 28  1  0  0  0  0
  8 29  1  0  0  0  0
 10 30  1  0  0  0  0
 10 31  1  0  0  0  0
 15 32  1  0  0  0  0
 15 33  1  0  0  0  0
 16 34  1  0  0  0  0
 16 35  1  0  0  0  0
 16 36  1  0  0  0  0
 18 37  1  0  0  0  0
 18 38  1  0  0  0  0
 19 39  1  0  0  0  0
 19 40  1  0  0  0  0
 19 41  1  0  0  0  0
M  END
