 xtb: 6.7.1 (edcfbbe)
          04092505213D

 41 40  0     0  0            999 V2000
    1.7204   -2.4345    1.1415 C   0  0  0  0  0  0  0  0  0  0  0  0
    3.1651   -2.0436    0.9058 C   0  0  0  0  0  0  0  0  0  0  0  0
    3.3442   -0.6178    0.8989 O   0  0  0  0  0  0  0  0  0  0  0  0
    2.8704    0.3054   -0.3065 P   0  0  0  0  0  0  0  0  0  0  0  0
    3.1268   -0.4833   -2.0798 S   0  0  0  0  0  0  0  0  0  0  0  0
    3.7588    1.5922   -0.1159 O   0  0  0  0  0  0  0  0  0  0  0  0
    3.5832    2.6304    0.8774 C   0  0  0  0  0  0  0  0  0  0  0  0
    3.5065    2.0859    2.2866 C   0  0  0  0  0  0  0  0  0  0  0  0
    0.8788    0.9595    0.1556 S   0  0  0  0  0  0  0  0  0  0  0  0
    0.0183    0.4106   -1.3366 C   0  0  0  0  0  0  0  0  0  0  0  0
   -1.0621   -1.0084   -1.0426 S   0  0  0  0  0  0  0  0  0  0  0  0
   -2.6447    0.1034   -0.1399 P   0  0  0  0  0  0  0  0  0  0  0  0
   -3.0560    1.8048   -1.0122 S   0  0  0  0  0  0  0  0  0  0  0  0
   -2.2768    0.2895    1.3745 O   0  0  0  0  0  0  0  0  0  0  0  0
   -1.9443   -0.8148    2.2595 C   0  0  0  0  0  0  0  0  0  0  0  0
   -0.9795   -0.2945    3.3044 C   0  0  0  0  0  0  0  0  0  0  0  0
   -3.8220   -0.9607   -0.0788 O   0  0  0  0  0  0  0  0  0  0  0  0
   -4.5235   -1.3775   -1.2689 C   0  0  0  0  0  0  0  0  0  0  0  0
   -5.7999   -2.0686   -0.8346 C   0  0  0  0  0  0  0  0  0  0  0  0
    1.3413   -1.9507    2.0376 H   0  0  0  0  0  0  0  0  0  0  0  0
    1.1087   -2.1433    0.2884 H   0  0  0  0  0  0  0  0  0  0  0  0
    1.6561   -3.5113    1.2601 H   0  0  0  0  0  0  0  0  0  0  0  0
    3.5246   -2.4455   -0.0470 H   0  0  0  0  0  0  0  0  0  0  0  0
    3.8101   -2.3831    1.7175 H   0  0  0  0  0  0  0  0  0  0  0  0
    4.4610    3.2621    0.7336 H   0  0  0  0  0  0  0  0  0  0  0  0
    2.6789    3.1914    0.6269 H   0  0  0  0  0  0  0  0  0  0  0  0
    3.4637    2.9152    2.9859 H   0  0  0  0  0  0  0  0  0  0  0  0
    2.6103    1.4790    2.4024 H   0  0  0  0  0  0  0  0  0  0  0  0
    4.3782    1.4742    2.5029 H   0  0  0  0  0  0  0  0  0  0  0  0
    0.7582    0.1070   -2.0816 H   0  0  0  0  0  0  0  0  0  0  0  0
   -0.5941    1.2393   -1.6948 H   0  0  0  0  0  0  0  0  0  0  0  0
   -2.8766   -1.1636    2.7063 H   0  0  0  0  0  0  0  0  0  0  0  0
   -1.5027   -1.6206    1.6658 H   0  0  0  0  0  0  0  0  0  0  0  0
   -1.4363    0.5196    3.8593 H   0  0  0  0  0  0  0  0  0  0  0  0
   -0.7251   -1.0985    3.9877 H   0  0  0  0  0  0  0  0  0  0  0  0
   -0.0782    0.0796    2.8252 H   0  0  0  0  0  0  0  0  0  0  0  0
   -4.7316   -0.4926   -1.8792 H   0  0  0  0  0  0  0  0  0  0  0  0
   -3.8718   -2.0536   -1.8290 H   0  0  0  0  0  0  0  0  0  0  0  0
   -5.5638   -2.9243   -0.2091 H   0  0  0  0  0  0  0  0  0  0  0  0
   -6.4233   -1.3802   -0.2710 H   0  0  0  0  0  0  0  0  0  0  0  0
   -6.3402   -2.4032   -1.7139 H   0  0  0  0  0  0  0  0  0  0  0  0
  1  2  1  0  0  0  0
  2  3  1  0  0  0  0
  3  4  2  0  0  0  0
  4  5  2  0  0  0  0
  4  6  2  0  0  0  0
  6  7  1  0  0  0  0
  7  8  1  0  0  0  0
  4  9  1  0  0  0  0
  9 10  1  0  0  0  0
 10 11  1  0  0  0  0
 11 12  1  0  0  0  0
 12 13  2  0  0  0  0
 12 14  2  0  0  0  0
 14 15  1  0  0  0  0
 15 16  1  0  0  0  0
 12 17  2  0  0  0  0
 17 18  1  0  0  0  0
 18 19  1  0  0  0  0
  1 20  1  0  0  0  0
  1 21  1  0  0  0  0
  1 22  1  0  0  0  0
  2 23  1  0  0  0  0
  2 24  1  0  0  0  0
  7 25  1  0  0  0  0
  7 26  1  0  0  0  0
  8 27  1  0  0  0  0
  8 28  1  0  0  0  0
  8 29  1  0  0  0  0
 10 30  1  0  0  0  0
 10 31  1  0  0  0  0
 15 32  1  0  0  0  0
 15 33  1  0  0  0  0
 16 34  1  0  0  0  0
 16 35  1  0  0  0  0
 16 36  1  0  0  0  0
 18 37  1  0  0  0  0
 18 38  1  0  0  0  0
 19 39  1  0  0  0  0
 19 40  1  0  0  0  0
 19 41  1  0  0  0  0
M  END
