 xtb: 6.7.1 (edcfbbe)
          04092505203D

 41 40  0     0  0            999 V2000
    2.9865    0.7062   -2.3502 C   0  0  0  0  0  0  0  0  0  0  0  0
    2.1101   -0.5272   -2.3076 C   0  0  0  0  0  0  0  0  0  0  0  0
    1.2752   -0.5696   -1.1309 O   0  0  0  0  0  0  0  0  0  0  0  0
    1.8003   -0.5125    0.3567 P   0  0  0  0  0  0  0  0  0  0  0  0
    2.4304    1.1721    1.1536 S   0  0  0  0  0  0  0  0  0  0  0  0
    2.9044   -1.6573    0.3281 O   0  0  0  0  0  0  0  0  0  0  0  0
    3.7978   -1.8936    1.4337 C   0  0  0  0  0  0  0  0  0  0  0  0
    5.0645   -2.5247    0.8915 C   0  0  0  0  0  0  0  0  0  0  0  0
    0.2036   -1.4083    1.3964 S   0  0  0  0  0  0  0  0  0  0  0  0
   -0.6068    0.0593    2.1101 C   0  0  0  0  0  0  0  0  0  0  0  0
   -2.3065    0.2618    1.5421 S   0  0  0  0  0  0  0  0  0  0  0  0
   -1.8946    0.7744   -0.4837 P   0  0  0  0  0  0  0  0  0  0  0  0
   -0.4673    2.0792   -0.7800 S   0  0  0  0  0  0  0  0  0  0  0  0
   -3.3408    1.1255   -1.0429 O   0  0  0  0  0  0  0  0  0  0  0  0
   -4.2879    2.0140   -0.4194 C   0  0  0  0  0  0  0  0  0  0  0  0
   -3.7122    3.3861   -0.1398 C   0  0  0  0  0  0  0  0  0  0  0  0
   -1.5879   -0.5624   -1.2585 O   0  0  0  0  0  0  0  0  0  0  0  0
   -2.4954   -1.6969   -1.2658 C   0  0  0  0  0  0  0  0  0  0  0  0
   -1.6860   -2.9427   -1.5589 C   0  0  0  0  0  0  0  0  0  0  0  0
    2.3759    1.6019   -2.2458 H   0  0  0  0  0  0  0  0  0  0  0  0
    3.7063    0.6855   -1.5324 H   0  0  0  0  0  0  0  0  0  0  0  0
    3.5200    0.7420   -3.2948 H   0  0  0  0  0  0  0  0  0  0  0  0
    2.7099   -1.4399   -2.3303 H   0  0  0  0  0  0  0  0  0  0  0  0
    1.3876   -0.5295   -3.1260 H   0  0  0  0  0  0  0  0  0  0  0  0
    4.0036   -0.9370    1.9261 H   0  0  0  0  0  0  0  0  0  0  0  0
    3.2902   -2.5582    2.1370 H   0  0  0  0  0  0  0  0  0  0  0  0
    4.8260   -3.4472    0.3701 H   0  0  0  0  0  0  0  0  0  0  0  0
    5.5578   -1.8457    0.2013 H   0  0  0  0  0  0  0  0  0  0  0  0
    5.7337   -2.7409    1.7176 H   0  0  0  0  0  0  0  0  0  0  0  0
   -0.0144    0.9427    1.8529 H   0  0  0  0  0  0  0  0  0  0  0  0
   -0.6630   -0.0752    3.1873 H   0  0  0  0  0  0  0  0  0  0  0  0
   -5.1042    2.0634   -1.1421 H   0  0  0  0  0  0  0  0  0  0  0  0
   -4.6353    1.5446    0.5049 H   0  0  0  0  0  0  0  0  0  0  0  0
   -3.3106    3.8230   -1.0512 H   0  0  0  0  0  0  0  0  0  0  0  0
   -4.4905    4.0301    0.2564 H   0  0  0  0  0  0  0  0  0  0  0  0
   -2.9053    3.3147    0.5884 H   0  0  0  0  0  0  0  0  0  0  0  0
   -2.9858   -1.7615   -0.2898 H   0  0  0  0  0  0  0  0  0  0  0  0
   -3.2447   -1.5097   -2.0370 H   0  0  0  0  0  0  0  0  0  0  0  0
   -2.3528   -3.7981   -1.5940 H   0  0  0  0  0  0  0  0  0  0  0  0
   -1.1770   -2.8413   -2.5132 H   0  0  0  0  0  0  0  0  0  0  0  0
   -0.9428   -3.0989   -0.7808 H   0  0  0  0  0  0  0  0  0  0  0  0
  1  2  1  0  0  0  0
  2  3  1  0  0  0  0
  3  4  2  0  0  0  0
  4  5  2  0  0  0  0
  4  6  2  0  0  0  0
  6  7  1  0  0  0  0
  7  8  1  0  0  0  0
  4  9  1  0  0  0  0
  9 10  1  0  0  0  0
 10 11  1  0  0  0  0
 11 12  1  0  0  0  0
 12 13  2  0  0  0  0
 12 14  2  0  0  0  0
 14 15  1  0  0  0  0
 15 16  1  0  0  0  0
 12 17  2  0  0  0  0
 17 18  1  0  0  0  0
 18 19  1  0  0  0  0
  1 20  1  0  0  0  0
  1 21  1  0  0  0  0
  1 22  1  0  0  0  0
  2 23  1  0  0  0  0
  2 24  1  0  0  0  0
  7 25  1  0  0  0  0
  7 26  1  0  0  0  0
  8 27  1  0  0  0  0
  8 28  1  0  0  0  0
  8 29  1  0  0  0  0
 10 30  1  0  0  0  0
 10 31  1  0  0  0  0
 15 32  1  0  0  0  0
 15 33  1  0  0  0  0
 16 34  1  0  0  0  0
 16 35  1  0  0  0  0
 16 36  1  0  0  0  0
 18 37  1  0  0  0  0
 18 38  1  0  0  0  0
 19 39  1  0  0  0  0
 19 40  1  0  0  0  0
 19 41  1  0  0  0  0
M  END
