 xtb: 6.7.1 (edcfbbe)
          04092505213D

 41 40  0     0  0            999 V2000
    4.6057    1.1193   -1.3265 C   0  0  0  0  0  0  0  0  0  0  0  0
    4.6144    1.1507    0.1884 C   0  0  0  0  0  0  0  0  0  0  0  0
    3.7834    0.1275    0.7623 O   0  0  0  0  0  0  0  0  0  0  0  0
    2.2015    0.1239    0.6204 P   0  0  0  0  0  0  0  0  0  0  0  0
    1.3626    1.8848    0.7646 S   0  0  0  0  0  0  0  0  0  0  0  0
    1.7439   -0.8180    1.7966 O   0  0  0  0  0  0  0  0  0  0  0  0
    1.8503   -2.2610    1.8535 C   0  0  0  0  0  0  0  0  0  0  0  0
    3.2608   -2.7556    1.6203 C   0  0  0  0  0  0  0  0  0  0  0  0
    1.8301   -0.9392   -1.1997 S   0  0  0  0  0  0  0  0  0  0  0  0
    0.1317   -0.3935   -1.3986 C   0  0  0  0  0  0  0  0  0  0  0  0
   -0.9435   -1.1816   -0.1455 S   0  0  0  0  0  0  0  0  0  0  0  0
   -2.6261    0.0048   -0.5544 P   0  0  0  0  0  0  0  0  0  0  0  0
   -3.2077    0.1333   -2.4127 S   0  0  0  0  0  0  0  0  0  0  0  0
   -2.1686    1.3769    0.1313 O   0  0  0  0  0  0  0  0  0  0  0  0
   -2.5546    2.6736   -0.3695 C   0  0  0  0  0  0  0  0  0  0  0  0
   -1.5131    3.2227   -1.3231 C   0  0  0  0  0  0  0  0  0  0  0  0
   -3.7769   -0.5822    0.3629 O   0  0  0  0  0  0  0  0  0  0  0  0
   -3.6365   -0.7618    1.7954 C   0  0  0  0  0  0  0  0  0  0  0  0
   -3.3661   -2.2166    2.1219 C   0  0  0  0  0  0  0  0  0  0  0  0
    4.8335    0.1195   -1.6867 H   0  0  0  0  0  0  0  0  0  0  0  0
    3.6266    1.4133   -1.7013 H   0  0  0  0  0  0  0  0  0  0  0  0
    5.3479    1.8161   -1.7026 H   0  0  0  0  0  0  0  0  0  0  0  0
    4.2701    2.1231    0.5548 H   0  0  0  0  0  0  0  0  0  0  0  0
    5.6055    0.9341    0.5894 H   0  0  0  0  0  0  0  0  0  0  0  0
    1.5006   -2.4942    2.8602 H   0  0  0  0  0  0  0  0  0  0  0  0
    1.1568   -2.6790    1.1176 H   0  0  0  0  0  0  0  0  0  0  0  0
    3.5747   -2.5359    0.6018 H   0  0  0  0  0  0  0  0  0  0  0  0
    3.9476   -2.2746    2.3117 H   0  0  0  0  0  0  0  0  0  0  0  0
    3.2881   -3.8299    1.7743 H   0  0  0  0  0  0  0  0  0  0  0  0
   -0.2009   -0.6855   -2.3929 H   0  0  0  0  0  0  0  0  0  0  0  0
    0.0856    0.6888   -1.2596 H   0  0  0  0  0  0  0  0  0  0  0  0
   -3.5282    2.5912   -0.8615 H   0  0  0  0  0  0  0  0  0  0  0  0
   -2.6380    3.2935    0.5243 H   0  0  0  0  0  0  0  0  0  0  0  0
   -0.5371    3.2331   -0.8424 H   0  0  0  0  0  0  0  0  0  0  0  0
   -1.4686    2.6111   -2.2226 H   0  0  0  0  0  0  0  0  0  0  0  0
   -1.7839    4.2362   -1.6003 H   0  0  0  0  0  0  0  0  0  0  0  0
   -2.8358   -0.1129    2.1601 H   0  0  0  0  0  0  0  0  0  0  0  0
   -4.5926   -0.4341    2.2070 H   0  0  0  0  0  0  0  0  0  0  0  0
   -3.3408   -2.3392    3.2001 H   0  0  0  0  0  0  0  0  0  0  0  0
   -4.1513   -2.8416    1.7058 H   0  0  0  0  0  0  0  0  0  0  0  0
   -2.4110   -2.5294    1.7045 H   0  0  0  0  0  0  0  0  0  0  0  0
  1  2  1  0  0  0  0
  2  3  1  0  0  0  0
  3  4  2  0  0  0  0
  4  5  2  0  0  0  0
  4  6  2  0  0  0  0
  6  7  1  0  0  0  0
  7  8  1  0  0  0  0
  4  9  1  0  0  0  0
  9 10  1  0  0  0  0
 10 11  1  0  0  0  0
 11 12  1  0  0  0  0
 12 13  2  0  0  0  0
 12 14  1  0  0  0  0
 14 15  1  0  0  0  0
 15 16  1  0  0  0  0
 12 17  2  0  0  0  0
 17 18  1  0  0  0  0
 18 19  1  0  0  0  0
  1 20  1  0  0  0  0
  1 21  1  0  0  0  0
  1 22  1  0  0  0  0
  2 23  1  0  0  0  0
  2 24  1  0  0  0  0
  7 25  1  0  0  0  0
  7 26  1  0  0  0  0
  8 27  1  0  0  0  0
  8 28  1  0  0  0  0
  8 29  1  0  0  0  0
 10 30  1  0  0  0  0
 10 31  1  0  0  0  0
 15 32  1  0  0  0  0
 15 33  1  0  0  0  0
 16 34  1  0  0  0  0
 16 35  1  0  0  0  0
 16 36  1  0  0  0  0
 18 37  1  0  0  0  0
 18 38  1  0  0  0  0
 19 39  1  0  0  0  0
 19 40  1  0  0  0  0
 19 41  1  0  0  0  0
M  END
