41
 xtb: 6.7.1 (edcfbbe)
C            5.11514562979026        1.25254607093787       -0.97828405506816
C            5.00148266014362       -0.21736636348361       -0.65841964449115
O            3.65535275646280       -0.74340554659705       -0.92391329926831
P            2.40522121666930       -0.48439072041372        0.05941434699178
S            2.79399042627300       -0.22559711264148        1.95170959567145
O            1.45293739962395       -1.72506229774554       -0.32013280992994
C            1.55082618868886       -3.00959370770127        0.39185963389810
C            2.82111342701673       -3.75325663732382        0.05682471190121
S            1.41767665848333        1.10130147105104       -0.93188529683670
C            0.35257114088280        1.73435375634079        0.42455925435712
S           -0.93516583526401        0.59915837904504        1.08378592572383
P           -2.53605498413114        0.97799231705877       -0.24381253959402
S           -2.17861656645269        0.88544833665376       -2.15415653153925
O           -3.06718406356493        2.39113728272026        0.31351915556686
C           -3.96048772694158        3.24389683841922       -0.48859877514798
C           -5.36004003921082        2.68426252893270       -0.55855286589951
O           -3.63123676651183       -0.04724712320812        0.34669883561619
C           -3.87227273050395       -1.37330241917536       -0.24043766653422
C           -2.80060003902936       -2.36611576054375        0.13887437135792
H            4.80114639503640        1.45630859419410       -2.00612566793430
H            4.51835529796741        1.86270520415784       -0.29459951989908
H            6.16374606614306        1.54970494538846       -0.87279236244301
H            5.25261946612443       -0.42991991812592        0.38509878575462
H            5.64049944579173       -0.81907034293614       -1.30775301620525
H            1.46029189072041       -2.81276349768214        1.46469978818915
H            0.66608080960818       -3.55286095240228        0.05384075320691
H            2.77705419119181       -4.74222718377554        0.52472891089762
H            2.92358180396559       -3.88729734354067       -1.02380713432364
H            3.70724272912721       -3.23710661760046        0.43828284405833
H           -0.10751050737279        2.64918471947267        0.04017053792355
H            0.98496873356808        1.98963422672023        1.27885003763338
H           -3.93400224859095        4.20107830700262        0.03565923575443
H           -3.51669517166951        3.36696747825266       -1.48114271323326
H           -5.99985804259841        3.40958669509168       -1.07187644679254
H           -5.39323104048942        1.74557905023893       -1.12000744281408
H           -5.76485318863224        2.51525085937629        0.44339016350683
H           -4.84456600645915       -1.65788493475200        0.16669921477973
H           -3.95880218100521       -1.25726586799854       -1.32489240466816
H           -2.69184695317993       -2.43165725001698        1.22555254538428
H           -3.09236574210190       -3.35205752120933       -0.23775102168120
H           -1.83291870298807       -2.10738417045707       -0.30213285643428
