 xtb: 6.7.1 (edcfbbe)
          04092505203D

 41 40  0     0  0            999 V2000
    4.4059    0.5694   -2.0303 C   0  0  0  0  0  0  0  0  0  0  0  0
    4.5975    0.2383   -0.5637 C   0  0  0  0  0  0  0  0  0  0  0  0
    3.4437   -0.4033   -0.0000 O   0  0  0  0  0  0  0  0  0  0  0  0
    2.0679    0.3728    0.2338 P   0  0  0  0  0  0  0  0  0  0  0  0
    2.2595    2.2265    0.8315 S   0  0  0  0  0  0  0  0  0  0  0  0
    1.3311   -0.6308    1.2067 O   0  0  0  0  0  0  0  0  0  0  0  0
    1.3441   -0.4622    2.6376 C   0  0  0  0  0  0  0  0  0  0  0  0
    2.7082   -0.7635    3.2205 C   0  0  0  0  0  0  0  0  0  0  0  0
    0.9532    0.0837   -1.5490 S   0  0  0  0  0  0  0  0  0  0  0  0
    0.5105   -1.6668   -1.4183 C   0  0  0  0  0  0  0  0  0  0  0  0
   -0.7810   -2.0440   -0.1823 S   0  0  0  0  0  0  0  0  0  0  0  0
   -1.9792   -0.3248   -0.3505 P   0  0  0  0  0  0  0  0  0  0  0  0
   -2.5016    0.2711   -2.1482 S   0  0  0  0  0  0  0  0  0  0  0  0
   -1.2020    0.7214    0.5592 O   0  0  0  0  0  0  0  0  0  0  0  0
   -1.4272    2.1389    0.4144 C   0  0  0  0  0  0  0  0  0  0  0  0
   -2.8004    2.5384    0.9072 C   0  0  0  0  0  0  0  0  0  0  0  0
   -3.1991   -0.7034    0.5934 O   0  0  0  0  0  0  0  0  0  0  0  0
   -4.2775   -1.5475    0.1400 C   0  0  0  0  0  0  0  0  0  0  0  0
   -5.4737   -1.3021    1.0373 C   0  0  0  0  0  0  0  0  0  0  0  0
    3.6097    1.3053   -2.1443 H   0  0  0  0  0  0  0  0  0  0  0  0
    5.3267    0.9832   -2.4286 H   0  0  0  0  0  0  0  0  0  0  0  0
    4.1391   -0.3222   -2.5918 H   0  0  0  0  0  0  0  0  0  0  0  0
    4.8013    1.1484    0.0096 H   0  0  0  0  0  0  0  0  0  0  0  0
    5.4017   -0.4834   -0.4141 H   0  0  0  0  0  0  0  0  0  0  0  0
    1.0383    0.5627    2.8701 H   0  0  0  0  0  0  0  0  0  0  0  0
    0.5844   -1.1632    2.9871 H   0  0  0  0  0  0  0  0  0  0  0  0
    2.6537   -0.7202    4.3037 H   0  0  0  0  0  0  0  0  0  0  0  0
    3.0380   -1.7521    2.9125 H   0  0  0  0  0  0  0  0  0  0  0  0
    3.4292   -0.0249    2.8721 H   0  0  0  0  0  0  0  0  0  0  0  0
    1.3821   -2.2537   -1.1384 H   0  0  0  0  0  0  0  0  0  0  0  0
    0.1445   -1.9410   -2.4060 H   0  0  0  0  0  0  0  0  0  0  0  0
   -0.6297    2.5995    1.0014 H   0  0  0  0  0  0  0  0  0  0  0  0
   -1.2969    2.4040   -0.6408 H   0  0  0  0  0  0  0  0  0  0  0  0
   -2.8927    3.6193    0.8711 H   0  0  0  0  0  0  0  0  0  0  0  0
   -3.5625    2.0942    0.2678 H   0  0  0  0  0  0  0  0  0  0  0  0
   -2.9478    2.1930    1.9270 H   0  0  0  0  0  0  0  0  0  0  0  0
   -4.4988   -1.2988   -0.9036 H   0  0  0  0  0  0  0  0  0  0  0  0
   -3.9417   -2.5862    0.1970 H   0  0  0  0  0  0  0  0  0  0  0  0
   -6.2847   -1.9560    0.7342 H   0  0  0  0  0  0  0  0  0  0  0  0
   -5.2098   -1.5092    2.0702 H   0  0  0  0  0  0  0  0  0  0  0  0
   -5.7983   -0.2685    0.9572 H   0  0  0  0  0  0  0  0  0  0  0  0
  1  2  1  0  0  0  0
  2  3  1  0  0  0  0
  3  4  1  0  0  0  0
  4  5  2  0  0  0  0
  4  6  2  0  0  0  0
  6  7  1  0  0  0  0
  7  8  1  0  0  0  0
  4  9  1  0  0  0  0
  9 10  1  0  0  0  0
 10 11  1  0  0  0  0
 11 12  1  0  0  0  0
 12 13  2  0  0  0  0
 12 14  1  0  0  0  0
 14 15  1  0  0  0  0
 15 16  1  0  0  0  0
 12 17  2  0  0  0  0
 17 18  1  0  0  0  0
 18 19  1  0  0  0  0
  1 20  1  0  0  0  0
  1 21  1  0  0  0  0
  1 22  1  0  0  0  0
  2 23  1  0  0  0  0
  2 24  1  0  0  0  0
  7 25  1  0  0  0  0
  7 26  1  0  0  0  0
  8 27  1  0  0  0  0
  8 28  1  0  0  0  0
  8 29  1  0  0  0  0
 10 30  1  0  0  0  0
 10 31  1  0  0  0  0
 15 32  1  0  0  0  0
 15 33  1  0  0  0  0
 16 34  1  0  0  0  0
 16 35  1  0  0  0  0
 16 36  1  0  0  0  0
 18 37  1  0  0  0  0
 18 38  1  0  0  0  0
 19 39  1  0  0  0  0
 19 40  1  0  0  0  0
 19 41  1  0  0  0  0
M  END
