10
 xtb: 6.7.1 (edcfbbe)
C            1.48040631716820        0.57948156673469        0.00002323429419
C            0.66957183050088       -0.70407744254931       -0.00010284844870
C           -0.80725904030768       -0.51511187660775        0.00019262209150
O           -1.36963790153921        0.56951176088699        0.00024008386398
H            2.55000145963731        0.35415438894499       -0.00084966624196
H            1.25991898038517        1.18324422638789        0.88522924192121
H            1.25867169652072        1.18420163460987       -0.88421848766847
H            0.89708809888429       -1.34099029182578       -0.86853379489971
H            0.89741754501510       -1.34139051159170        0.86793916864747
H           -1.40659111336521       -1.44821566987130        0.00012198634426
