 xtb: 6.7.1 (edcfbbe)
          04092505213D

 41 40  0     0  0            999 V2000
    5.1626   -1.5517   -0.7803 C   0  0  0  0  0  0  0  0  0  0  0  0
    4.4702   -0.6180   -1.7508 C   0  0  0  0  0  0  0  0  0  0  0  0
    3.0939   -0.3829   -1.3870 O   0  0  0  0  0  0  0  0  0  0  0  0
    2.7024    0.4230   -0.0750 P   0  0  0  0  0  0  0  0  0  0  0  0
    3.9035    1.8745    0.4551 S   0  0  0  0  0  0  0  0  0  0  0  0
    2.5501   -0.7592    0.9841 O   0  0  0  0  0  0  0  0  0  0  0  0
    2.5707   -0.5213    2.4019 C   0  0  0  0  0  0  0  0  0  0  0  0
    1.3298    0.2100    2.8709 C   0  0  0  0  0  0  0  0  0  0  0  0
    0.7357    0.9642   -0.6320 S   0  0  0  0  0  0  0  0  0  0  0  0
    0.0591   -0.7165   -0.8845 C   0  0  0  0  0  0  0  0  0  0  0  0
   -1.1515   -1.1590    0.3714 S   0  0  0  0  0  0  0  0  0  0  0  0
   -2.7411    0.0330   -0.4058 P   0  0  0  0  0  0  0  0  0  0  0  0
   -2.8177    0.1501   -2.3610 S   0  0  0  0  0  0  0  0  0  0  0  0
   -2.6069    1.4893    0.1755 O   0  0  0  0  0  0  0  0  0  0  0  0
   -2.1880    1.8878    1.5039 C   0  0  0  0  0  0  0  0  0  0  0  0
   -2.8841    1.1334    2.6158 C   0  0  0  0  0  0  0  0  0  0  0  0
   -4.0293   -0.5192    0.3374 O   0  0  0  0  0  0  0  0  0  0  0  0
   -4.3968   -1.9063    0.4570 C   0  0  0  0  0  0  0  0  0  0  0  0
   -4.4763   -2.6130   -0.8800 C   0  0  0  0  0  0  0  0  0  0  0  0
    5.2475   -1.0741    0.1949 H   0  0  0  0  0  0  0  0  0  0  0  0
    4.5985   -2.4746   -0.6747 H   0  0  0  0  0  0  0  0  0  0  0  0
    6.1583   -1.7769   -1.1495 H   0  0  0  0  0  0  0  0  0  0  0  0
    4.4040   -1.0461   -2.7519 H   0  0  0  0  0  0  0  0  0  0  0  0
    4.9855    0.3468   -1.7920 H   0  0  0  0  0  0  0  0  0  0  0  0
    2.6395   -1.5197    2.8353 H   0  0  0  0  0  0  0  0  0  0  0  0
    3.4691    0.0567    2.6409 H   0  0  0  0  0  0  0  0  0  0  0  0
    1.3587    0.3128    3.9507 H   0  0  0  0  0  0  0  0  0  0  0  0
    1.3011    1.2039    2.4231 H   0  0  0  0  0  0  0  0  0  0  0  0
    0.4369   -0.3407    2.5846 H   0  0  0  0  0  0  0  0  0  0  0  0
    0.8669   -1.4404   -0.8379 H   0  0  0  0  0  0  0  0  0  0  0  0
   -0.4320   -0.7201   -1.8592 H   0  0  0  0  0  0  0  0  0  0  0  0
   -1.1034    1.7618    1.5578 H   0  0  0  0  0  0  0  0  0  0  0  0
   -2.4290    2.9517    1.5288 H   0  0  0  0  0  0  0  0  0  0  0  0
   -3.9625    1.2104    2.5049 H   0  0  0  0  0  0  0  0  0  0  0  0
   -2.6002    0.0830    2.6034 H   0  0  0  0  0  0  0  0  0  0  0  0
   -2.5895    1.5662    3.5670 H   0  0  0  0  0  0  0  0  0  0  0  0
   -3.6689   -2.3963    1.1094 H   0  0  0  0  0  0  0  0  0  0  0  0
   -5.3714   -1.8715    0.9468 H   0  0  0  0  0  0  0  0  0  0  0  0
   -5.1494   -2.0833   -1.5501 H   0  0  0  0  0  0  0  0  0  0  0  0
   -3.4928   -2.6518   -1.3459 H   0  0  0  0  0  0  0  0  0  0  0  0
   -4.8387   -3.6252   -0.7322 H   0  0  0  0  0  0  0  0  0  0  0  0
  1  2  1  0  0  0  0
  2  3  1  0  0  0  0
  3  4  2  0  0  0  0
  4  5  2  0  0  0  0
  4  6  2  0  0  0  0
  6  7  1  0  0  0  0
  7  8  1  0  0  0  0
  4  9  1  0  0  0  0
  9 10  1  0  0  0  0
 10 11  1  0  0  0  0
 11 12  1  0  0  0  0
 12 13  2  0  0  0  0
 12 14  2  0  0  0  0
 14 15  1  0  0  0  0
 15 16  1  0  0  0  0
 12 17  2  0  0  0  0
 17 18  1  0  0  0  0
 18 19  1  0  0  0  0
  1 20  1  0  0  0  0
  1 21  1  0  0  0  0
  1 22  1  0  0  0  0
  2 23  1  0  0  0  0
  2 24  1  0  0  0  0
  7 25  1  0  0  0  0
  7 26  1  0  0  0  0
  8 27  1  0  0  0  0
  8 28  1  0  0  0  0
  8 29  1  0  0  0  0
 10 30  1  0  0  0  0
 10 31  1  0  0  0  0
 15 32  1  0  0  0  0
 15 33  1  0  0  0  0
 16 34  1  0  0  0  0
 16 35  1  0  0  0  0
 16 36  1  0  0  0  0
 18 37  1  0  0  0  0
 18 38  1  0  0  0  0
 19 39  1  0  0  0  0
 19 40  1  0  0  0  0
 19 41  1  0  0  0  0
M  END
