 xtb: 6.7.1 (edcfbbe)
          04092505203D

 41 40  0     0  0            999 V2000
    2.5021    2.6068   -0.2691 C   0  0  0  0  0  0  0  0  0  0  0  0
    2.7206    1.7975    0.9936 C   0  0  0  0  0  0  0  0  0  0  0  0
    1.6642    0.8203    1.1826 O   0  0  0  0  0  0  0  0  0  0  0  0
    1.7654   -0.7088    0.8108 P   0  0  0  0  0  0  0  0  0  0  0  0
    0.2021   -1.6665    1.4973 S   0  0  0  0  0  0  0  0  0  0  0  0
    3.1813   -1.0795    1.4313 O   0  0  0  0  0  0  0  0  0  0  0  0
    3.9732   -2.2296    1.0783 C   0  0  0  0  0  0  0  0  0  0  0  0
    3.2180   -3.5328    1.2308 C   0  0  0  0  0  0  0  0  0  0  0  0
    2.1227   -0.9074   -1.2787 S   0  0  0  0  0  0  0  0  0  0  0  0
    0.4211   -0.7848   -1.8620 C   0  0  0  0  0  0  0  0  0  0  0  0
   -0.2389    0.9130   -1.7675 S   0  0  0  0  0  0  0  0  0  0  0  0
   -1.8568    0.6316   -0.4556 P   0  0  0  0  0  0  0  0  0  0  0  0
   -2.7111   -1.1374   -0.5508 S   0  0  0  0  0  0  0  0  0  0  0  0
   -2.8470    1.8370   -0.7734 O   0  0  0  0  0  0  0  0  0  0  0  0
   -3.9011    1.7334   -1.7456 C   0  0  0  0  0  0  0  0  0  0  0  0
   -3.3663    1.7025   -3.1626 C   0  0  0  0  0  0  0  0  0  0  0  0
   -1.1959    1.1462    0.8889 O   0  0  0  0  0  0  0  0  0  0  0  0
   -1.9124    1.5863    2.0600 C   0  0  0  0  0  0  0  0  0  0  0  0
   -2.8677    0.5373    2.5886 C   0  0  0  0  0  0  0  0  0  0  0  0
    1.5051    3.0401   -0.2690 H   0  0  0  0  0  0  0  0  0  0  0  0
    3.2380    3.4038   -0.3059 H   0  0  0  0  0  0  0  0  0  0  0  0
    2.6079    1.9854   -1.1550 H   0  0  0  0  0  0  0  0  0  0  0  0
    2.6574    2.4281    1.8821 H   0  0  0  0  0  0  0  0  0  0  0  0
    3.6825    1.2825    0.9778 H   0  0  0  0  0  0  0  0  0  0  0  0
    4.3199   -2.1017    0.0493 H   0  0  0  0  0  0  0  0  0  0  0  0
    4.8187   -2.1768    1.7665 H   0  0  0  0  0  0  0  0  0  0  0  0
    2.3844   -3.5699    0.5308 H   0  0  0  0  0  0  0  0  0  0  0  0
    3.8869   -4.3630    1.0284 H   0  0  0  0  0  0  0  0  0  0  0  0
    2.8205   -3.6263    2.2387 H   0  0  0  0  0  0  0  0  0  0  0  0
   -0.2249   -1.4441   -1.2747 H   0  0  0  0  0  0  0  0  0  0  0  0
    0.4406   -1.0824   -2.9071 H   0  0  0  0  0  0  0  0  0  0  0  0
   -4.4786    0.8277   -1.5335 H   0  0  0  0  0  0  0  0  0  0  0  0
   -4.5130    2.6179   -1.5634 H   0  0  0  0  0  0  0  0  0  0  0  0
   -2.8245    0.7737   -3.3342 H   0  0  0  0  0  0  0  0  0  0  0  0
   -4.1962    1.7593   -3.8595 H   0  0  0  0  0  0  0  0  0  0  0  0
   -2.6926    2.5387   -3.3310 H   0  0  0  0  0  0  0  0  0  0  0  0
   -1.1156    1.7933    2.7772 H   0  0  0  0  0  0  0  0  0  0  0  0
   -2.4407    2.5088    1.8067 H   0  0  0  0  0  0  0  0  0  0  0  0
   -2.3390   -0.4008    2.7518 H   0  0  0  0  0  0  0  0  0  0  0  0
   -3.2970    0.8759    3.5262 H   0  0  0  0  0  0  0  0  0  0  0  0
   -3.6686    0.3593    1.8717 H   0  0  0  0  0  0  0  0  0  0  0  0
  1  2  1  0  0  0  0
  2  3  1  0  0  0  0
  3  4  2  0  0  0  0
  4  5  2  0  0  0  0
  4  6  2  0  0  0  0
  6  7  1  0  0  0  0
  7  8  1  0  0  0  0
  4  9  1  0  0  0  0
  9 10  1  0  0  0  0
 10 11  1  0  0  0  0
 11 12  1  0  0  0  0
 12 13  2  0  0  0  0
 12 14  2  0  0  0  0
 14 15  1  0  0  0  0
 15 16  1  0  0  0  0
 12 17  2  0  0  0  0
 17 18  1  0  0  0  0
 18 19  1  0  0  0  0
  1 20  1  0  0  0  0
  1 21  1  0  0  0  0
  1 22  1  0  0  0  0
  2 23  1  0  0  0  0
  2 24  1  0  0  0  0
  7 25  1  0  0  0  0
  7 26  1  0  0  0  0
  8 27  1  0  0  0  0
  8 28  1  0  0  0  0
  8 29  1  0  0  0  0
 10 30  1  0  0  0  0
 10 31  1  0  0  0  0
 15 32  1  0  0  0  0
 15 33  1  0  0  0  0
 16 34  1  0  0  0  0
 16 35  1  0  0  0  0
 16 36  1  0  0  0  0
 18 37  1  0  0  0  0
 18 38  1  0  0  0  0
 19 39  1  0  0  0  0
 19 40  1  0  0  0  0
 19 41  1  0  0  0  0
M  END
