 xtb: 6.7.1 (edcfbbe)
          04092505203D

 41 40  0     0  0            999 V2000
    3.6679   -1.2223    2.0296 C   0  0  0  0  0  0  0  0  0  0  0  0
    2.1558   -1.1370    2.0238 C   0  0  0  0  0  0  0  0  0  0  0  0
    1.6524   -0.0270    1.2554 O   0  0  0  0  0  0  0  0  0  0  0  0
    2.0999    0.3230   -0.2270 P   0  0  0  0  0  0  0  0  0  0  0  0
    3.8094    1.2570   -0.4297 S   0  0  0  0  0  0  0  0  0  0  0  0
    0.8256    1.2051   -0.5986 O   0  0  0  0  0  0  0  0  0  0  0  0
    0.9442    2.2589   -1.5740 C   0  0  0  0  0  0  0  0  0  0  0  0
    1.0405    1.7207   -2.9873 C   0  0  0  0  0  0  0  0  0  0  0  0
    1.8902   -1.4765   -1.3341 S   0  0  0  0  0  0  0  0  0  0  0  0
    0.0794   -1.6569   -1.3881 C   0  0  0  0  0  0  0  0  0  0  0  0
   -0.7191   -1.8849    0.2313 S   0  0  0  0  0  0  0  0  0  0  0  0
   -1.8604   -0.1191    0.3590 P   0  0  0  0  0  0  0  0  0  0  0  0
   -2.2485    0.8569   -1.3003 S   0  0  0  0  0  0  0  0  0  0  0  0
   -1.1011    0.6480    1.5171 O   0  0  0  0  0  0  0  0  0  0  0  0
   -1.2725    2.0537    1.7628 C   0  0  0  0  0  0  0  0  0  0  0  0
   -2.6525    2.3762    2.2978 C   0  0  0  0  0  0  0  0  0  0  0  0
   -3.1662   -0.5943    1.1410 O   0  0  0  0  0  0  0  0  0  0  0  0
   -4.3437   -1.0761    0.4743 C   0  0  0  0  0  0  0  0  0  0  0  0
   -4.1166   -2.4052   -0.2173 C   0  0  0  0  0  0  0  0  0  0  0  0
    4.1018   -0.2825    2.3640 H   0  0  0  0  0  0  0  0  0  0  0  0
    3.9778   -2.0200    2.6970 H   0  0  0  0  0  0  0  0  0  0  0  0
    4.0376   -1.4345    1.0264 H   0  0  0  0  0  0  0  0  0  0  0  0
    1.7605   -0.9520    3.0243 H   0  0  0  0  0  0  0  0  0  0  0  0
    1.7190   -2.0589    1.6264 H   0  0  0  0  0  0  0  0  0  0  0  0
    0.0398    2.8550   -1.4420 H   0  0  0  0  0  0  0  0  0  0  0  0
    1.8268    2.8575   -1.3281 H   0  0  0  0  0  0  0  0  0  0  0  0
    1.9163    1.0794   -3.0826 H   0  0  0  0  0  0  0  0  0  0  0  0
    0.1460    1.1568   -3.2418 H   0  0  0  0  0  0  0  0  0  0  0  0
    1.1379    2.5536   -3.6761 H   0  0  0  0  0  0  0  0  0  0  0  0
   -0.0813   -2.5632   -1.9666 H   0  0  0  0  0  0  0  0  0  0  0  0
   -0.3722   -0.7915   -1.8767 H   0  0  0  0  0  0  0  0  0  0  0  0
   -0.4892    2.2899    2.4850 H   0  0  0  0  0  0  0  0  0  0  0  0
   -1.0807    2.5945    0.8307 H   0  0  0  0  0  0  0  0  0  0  0  0
   -2.8697    1.7622    3.1679 H   0  0  0  0  0  0  0  0  0  0  0  0
   -2.6938    3.4252    2.5744 H   0  0  0  0  0  0  0  0  0  0  0  0
   -3.4038    2.1820    1.5332 H   0  0  0  0  0  0  0  0  0  0  0  0
   -5.0802   -1.1606    1.2746 H   0  0  0  0  0  0  0  0  0  0  0  0
   -4.6658   -0.3191   -0.2483 H   0  0  0  0  0  0  0  0  0  0  0  0
   -5.0659   -2.7841   -0.5825 H   0  0  0  0  0  0  0  0  0  0  0  0
   -3.4409   -2.2771   -1.0617 H   0  0  0  0  0  0  0  0  0  0  0  0
   -3.6831   -3.1226    0.4748 H   0  0  0  0  0  0  0  0  0  0  0  0
  1  2  1  0  0  0  0
  2  3  1  0  0  0  0
  3  4  2  0  0  0  0
  4  5  2  0  0  0  0
  4  6  1  0  0  0  0
  6  7  1  0  0  0  0
  7  8  1  0  0  0  0
  4  9  1  0  0  0  0
  9 10  1  0  0  0  0
 10 11  1  0  0  0  0
 11 12  1  0  0  0  0
 12 13  2  0  0  0  0
 12 14  2  0  0  0  0
 14 15  1  0  0  0  0
 15 16  1  0  0  0  0
 12 17  2  0  0  0  0
 17 18  1  0  0  0  0
 18 19  1  0  0  0  0
  1 20  1  0  0  0  0
  1 21  1  0  0  0  0
  1 22  1  0  0  0  0
  2 23  1  0  0  0  0
  2 24  1  0  0  0  0
  7 25  1  0  0  0  0
  7 26  1  0  0  0  0
  8 27  1  0  0  0  0
  8 28  1  0  0  0  0
  8 29  1  0  0  0  0
 10 30  1  0  0  0  0
 10 31  1  0  0  0  0
 15 32  1  0  0  0  0
 15 33  1  0  0  0  0
 16 34  1  0  0  0  0
 16 35  1  0  0  0  0
 16 36  1  0  0  0  0
 18 37  1  0  0  0  0
 18 38  1  0  0  0  0
 19 39  1  0  0  0  0
 19 40  1  0  0  0  0
 19 41  1  0  0  0  0
M  END
