 xtb: 6.7.1 (edcfbbe)
          04092505213D

 41 40  0     0  0            999 V2000
    4.5203   -1.7943   -1.7952 C   0  0  0  0  0  0  0  0  0  0  0  0
    4.5156   -0.5722   -0.8991 C   0  0  0  0  0  0  0  0  0  0  0  0
    3.4347    0.3194   -1.2818 O   0  0  0  0  0  0  0  0  0  0  0  0
    2.1551    0.5623   -0.3963 P   0  0  0  0  0  0  0  0  0  0  0  0
    0.9625    1.8208   -1.3000 S   0  0  0  0  0  0  0  0  0  0  0  0
    2.8046    1.0217    0.9749 O   0  0  0  0  0  0  0  0  0  0  0  0
    2.0635    1.5188    2.1054 C   0  0  0  0  0  0  0  0  0  0  0  0
    3.0477    2.2055    3.0293 C   0  0  0  0  0  0  0  0  0  0  0  0
    1.3721   -1.3720    0.0347 S   0  0  0  0  0  0  0  0  0  0  0  0
    0.1888   -1.4868   -1.3471 C   0  0  0  0  0  0  0  0  0  0  0  0
   -1.4485   -2.0577   -0.8308 S   0  0  0  0  0  0  0  0  0  0  0  0
   -2.1936   -0.2997    0.0661 P   0  0  0  0  0  0  0  0  0  0  0  0
   -1.1626    0.5966    1.4808 S   0  0  0  0  0  0  0  0  0  0  0  0
   -3.6737   -0.7165    0.4610 O   0  0  0  0  0  0  0  0  0  0  0  0
   -4.0449   -1.8931    1.2042 C   0  0  0  0  0  0  0  0  0  0  0  0
   -3.2187   -2.0877    2.4584 C   0  0  0  0  0  0  0  0  0  0  0  0
   -2.4360    0.5901   -1.2226 O   0  0  0  0  0  0  0  0  0  0  0  0
   -2.6159    2.0160   -1.1615 C   0  0  0  0  0  0  0  0  0  0  0  0
   -3.9265    2.3790   -0.4977 C   0  0  0  0  0  0  0  0  0  0  0  0
    3.6356   -2.4005   -1.6175 H   0  0  0  0  0  0  0  0  0  0  0  0
    4.5380   -1.4895   -2.8379 H   0  0  0  0  0  0  0  0  0  0  0  0
    5.4038   -2.3868   -1.5800 H   0  0  0  0  0  0  0  0  0  0  0  0
    5.4232    0.0196   -1.0260 H   0  0  0  0  0  0  0  0  0  0  0  0
    4.3998   -0.8470    0.1511 H   0  0  0  0  0  0  0  0  0  0  0  0
    1.2929    2.2091    1.7487 H   0  0  0  0  0  0  0  0  0  0  0  0
    1.5682    0.6765    2.5952 H   0  0  0  0  0  0  0  0  0  0  0  0
    2.5131    2.5838    3.8941 H   0  0  0  0  0  0  0  0  0  0  0  0
    3.8067    1.4998    3.3538 H   0  0  0  0  0  0  0  0  0  0  0  0
    3.5290    3.0315    2.5133 H   0  0  0  0  0  0  0  0  0  0  0  0
    0.5470   -2.2315   -2.0529 H   0  0  0  0  0  0  0  0  0  0  0  0
    0.1030   -0.5016   -1.8129 H   0  0  0  0  0  0  0  0  0  0  0  0
   -5.0971   -1.7251    1.4409 H   0  0  0  0  0  0  0  0  0  0  0  0
   -3.9464   -2.7550    0.5384 H   0  0  0  0  0  0  0  0  0  0  0  0
   -3.5941   -2.9453    3.0073 H   0  0  0  0  0  0  0  0  0  0  0  0
   -2.1754   -2.2634    2.1968 H   0  0  0  0  0  0  0  0  0  0  0  0
   -3.2711   -1.2037    3.0900 H   0  0  0  0  0  0  0  0  0  0  0  0
   -1.7669    2.4541   -0.6260 H   0  0  0  0  0  0  0  0  0  0  0  0
   -2.5795    2.3300   -2.2054 H   0  0  0  0  0  0  0  0  0  0  0  0
   -3.9130    2.0494    0.5409 H   0  0  0  0  0  0  0  0  0  0  0  0
   -4.0602    3.4556   -0.5281 H   0  0  0  0  0  0  0  0  0  0  0  0
   -4.7527    1.8926   -1.0094 H   0  0  0  0  0  0  0  0  0  0  0  0
  1  2  1  0  0  0  0
  2  3  1  0  0  0  0
  3  4  2  0  0  0  0
  4  5  2  0  0  0  0
  4  6  2  0  0  0  0
  6  7  1  0  0  0  0
  7  8  1  0  0  0  0
  4  9  1  0  0  0  0
  9 10  1  0  0  0  0
 10 11  1  0  0  0  0
 11 12  1  0  0  0  0
 12 13  2  0  0  0  0
 12 14  2  0  0  0  0
 14 15  1  0  0  0  0
 15 16  1  0  0  0  0
 12 17  2  0  0  0  0
 17 18  1  0  0  0  0
 18 19  1  0  0  0  0
  1 20  1  0  0  0  0
  1 21  1  0  0  0  0
  1 22  1  0  0  0  0
  2 23  1  0  0  0  0
  2 24  1  0  0  0  0
  7 25  1  0  0  0  0
  7 26  1  0  0  0  0
  8 27  1  0  0  0  0
  8 28  1  0  0  0  0
  8 29  1  0  0  0  0
 10 30  1  0  0  0  0
 10 31  1  0  0  0  0
 15 32  1  0  0  0  0
 15 33  1  0  0  0  0
 16 34  1  0  0  0  0
 16 35  1  0  0  0  0
 16 36  1  0  0  0  0
 18 37  1  0  0  0  0
 18 38  1  0  0  0  0
 19 39  1  0  0  0  0
 19 40  1  0  0  0  0
 19 41  1  0  0  0  0
M  END
