38
 xtb: 6.7.1 (edcfbbe)
C            3.59512824737885       -3.89429597023230       -0.76863133181967
C            4.17869611247849       -2.68827560730341       -1.46634963820683
O            3.11929055536161       -1.88294859102717       -2.08670341864612
C            2.46950252805174       -1.02446323549288       -1.29209887830961
O            2.70349095186993       -0.86662133355606       -0.10618825960616
C            1.43882859522031       -0.23816649389771       -2.06140869235118
C            0.41713843389003        0.44789236202487       -1.15531991000121
H           -0.21789896653772        1.08605341259033       -1.78043444994086
C            1.10751093724597        1.38492048592366       -0.17292764238727
O            1.91193328761814        2.21038663867849       -0.57202145975895
O            0.71549172790950        1.26294985030999        1.08737816983921
C            1.33340461814325        2.18421192748789        2.04890294736560
C            0.74842307205561        1.87395028863132        3.40155002591256
S           -0.68199356224625       -0.85071639828595       -0.42845807559786
P           -2.31277627687706        0.29403093592499        0.30453624655357
S           -2.59261519327499        2.01734990654200       -0.54463056016633
O           -3.49822099917396       -0.79727911555267        0.21764656453186
C           -4.09628880640428       -1.12181299220491       -1.06812368623680
O           -2.17040047611621        0.43688655546778        1.89560355602073
C           -1.83633429095685       -0.70699724443920        2.73617611713231
H            3.02022435593023       -4.50725294841735       -1.46858971804161
H            4.41370092219347       -4.50310253202477       -0.37177973986641
H            2.95005514002019       -3.60252578788346        0.06423450140506
H            4.81038319914556       -2.97697342564911       -2.30769463695239
H            4.74822290249050       -2.04973205867517       -0.78704806564282
H            0.94480235038299       -0.87549603055030       -2.79847796200028
H            1.97823781042719        0.53377461259616       -2.62361134304813
H            2.41475812427041        2.02246060250449        2.01803735305543
H            1.11374610424091        3.20604178435695        1.72703868511579
H            0.94806994817864        0.83783313911073        3.68936019497397
H            1.21295837320756        2.53102358567697        4.14276474532150
H           -0.33057055814636        2.05009150075294        3.41529726071949
H           -3.33334591157944       -1.47074950809091       -1.76954202786485
H           -4.61111057360356       -0.24555457191495       -1.46958013852699
H           -4.81032391624567       -1.91982278651871       -0.86614361282638
H           -1.86805594690234       -0.33425720067853        3.75980896200359
H           -0.83185801664657       -1.06612607745078        2.49796376545134
H           -2.57161724742869       -1.50453586289587        2.60500971931376
