  22
 
 C         -3.2363248047        0.0004656241       -0.5176691647
 C         -2.5851553460        1.1972170883       -0.2716237473
 C         -1.2915043367        1.1950713527        0.2194837731
 C         -0.6308989416       -0.0001006348        0.4741275211
 C         -1.2917411255       -1.1950005762        0.2187607791
 C         -2.5853828473       -1.1965565311       -0.2723626778
 C          0.7829110238       -0.0003909580        0.9812419013
 C          1.7746556796       -0.0002626734       -0.1858725876
 C          3.2196387868       -0.0004409912        0.3028829233
 O          4.0779828885       -0.0002540818       -0.8219511249
 H         -4.2471583966        0.0007002560       -0.8971237989
 H         -3.0875598301        2.1343478090       -0.4606952668
 H         -0.7886609018        2.1318600044        0.4115403036
 H         -0.7890937543       -2.1319949091        0.4103056497
 H         -3.0879916957       -2.1334740530       -0.4619405578
 H          0.9561153966       -0.8856390889        1.5962421554
 H          0.9563333874        0.8845434594        1.5966361067
 H          1.6173653030        0.8803183328       -0.8113503886
 H          1.6172480455       -0.8806130779       -0.8116386766
 H          3.4006112187        0.8911261067        0.9190760663
 H          3.4005226097       -0.8922873152        0.9187015651
 H          4.9972991024       -0.0003415804       -0.5243236228
          22
        -29.44542035
 C         -2.8087987557        0.6215453066       -0.5408248846
 C         -2.3203569571       -0.5674230452       -1.0562889819
 C         -1.1682410563       -1.1278850267       -0.5346399304
 C         -0.4856671655       -0.5111824900        0.5076514404
 C         -0.9862800605        0.6794849389        1.0186027185
 C         -2.1393056151        1.2427682613        0.4996283233
 C          0.7827183376       -1.1145340159        1.0425546087
 C          1.9656162301       -0.8670105926        0.0984593131
 C          2.3044946654        0.6197041294       -0.0107489856
 O          3.4452029253        0.8647991055       -0.8074516372
 H         -3.7080766805        1.0604727922       -0.9463262270
 H         -2.8397869696       -1.0593719164       -1.8654546679
 H         -0.7947441261       -2.0584984146       -0.9375305639
 H         -0.4682198569        1.1694070328        1.8305622766
 H         -2.5159922528        2.1689010717        0.9082004654
 H          0.6515087898       -2.1922764823        1.1563277810
 H          1.0108625224       -0.6912645370        2.0219398189
 H          1.7233369083       -1.2546454522       -0.8938206155
 H          2.8450689464       -1.3984210094        0.4671027063
 H          1.4406599691        1.1745039948       -0.4024361309
 H          2.5527668245        1.0216613266        0.9750133655
 H          3.2795966434        0.5409220702       -1.7036467311
