  22
 
 C          1.5554411674        0.3455245526       -1.8737564877
 C          2.9254325418        0.3003718798       -2.0509238748
 C          3.7539844531        0.0933437235       -0.9590683300
 C          3.2124520515       -0.0512864895        0.3158956890
 C          1.8315059413       -0.0025177007        0.4832888505
 C          0.9905175440        0.1804763327       -0.6137681873
 C         -0.4774844978        0.2041649122       -0.4390821985
 C         -1.1912721764        1.3659575708       -0.7033665092
 C         -2.5633523079        1.4072663405       -0.5175447740
 C         -3.2482888946        0.2802178798       -0.0675138085
 C         -2.5423267200       -0.8959160155        0.1766013115
 C         -1.1633582158       -0.9341669870       -0.0133552832
 Cl        -0.3199704057       -2.4119030322        0.2487837590
 Cl        -3.3805198058       -2.2994409031        0.7151494308
 Cl        -4.9496679660        0.3286493946        0.1826718082
 Cl        -3.4323120717        2.8571977917       -0.8335812379
 Cl         1.1700436951       -0.1298167826        2.0735431729
 Cl         4.2422257902       -0.2886359540        1.6822003234
 Cl         5.4643428403        0.0194987816       -1.1683084743
 H          0.9063578696        0.4957190238       -2.7204721129
 H          3.3602543813        0.4201205717       -3.0289643724
 H         -0.6707134498        2.2470637442       -1.0408958248
          22
        -59.11298596
 C          1.5421564935        1.3940959879       -1.4059144735
 C          2.9126961374        1.5002423822       -1.5484275608
 C          3.7496784730        0.8100331940       -0.6851963991
 C          3.2150024501        0.0230060676        0.3318760230
 C          1.8330984889       -0.0767698478        0.4666315348
 C          0.9852075681        0.5978717474       -0.4109024857
 C         -0.4828859693        0.4783775217       -0.2819207051
 C         -1.2423606756        1.5917541157        0.0540302830
 C         -2.6162940452        1.4900619884        0.1970662401
 C         -3.2571621177        0.2684292200       -0.0005973984
 C         -2.5045121999       -0.8480488945       -0.3587950521
 C         -1.1233792860       -0.7414889901       -0.5028320016
 Cl        -0.2203371083       -2.1228024762       -0.9927592177
 Cl        -3.2879630972       -2.3574418789       -0.6235399781
 Cl        -4.9617074725        0.1310699881        0.1875264011
 Cl        -3.5422924745        2.8738581334        0.6272542410
 Cl         1.1771638201       -1.0130076624        1.7610172344
 Cl         4.2545256852       -0.8220363543        1.4222608379
 Cl         5.4617281437        0.9256316260       -0.8585215585
 H          0.8867386576        1.9211457037       -2.0793046835
 H          3.3415888488        2.1114609961       -2.3245514453
 H         -0.7560843354        2.5391234345        0.2189403073
