 xtb: 6.7.1 (edcfbbe)
          04092514013D

 41 40  0     0  0            999 V2000
    3.3577   -0.3132   -2.5706 C   0  0  0  0  0  0  0  0  0  0  0  0
    1.9848    0.1808   -2.1683 C   0  0  0  0  0  0  0  0  0  0  0  0
    1.4282   -0.6035   -1.0970 O   0  0  0  0  0  0  0  0  0  0  0  0
    1.9697   -0.5117    0.3852 P   0  0  0  0  0  0  0  0  0  0  0  0
    2.6829    1.2215    0.9736 S   0  0  0  0  0  0  0  0  0  0  0  0
    3.0083   -1.7153    0.4163 O   0  0  0  0  0  0  0  0  0  0  0  0
    3.8442   -1.9833    1.5617 C   0  0  0  0  0  0  0  0  0  0  0  0
    5.0090   -2.8404    1.1061 C   0  0  0  0  0  0  0  0  0  0  0  0
    0.3546   -1.2866    1.4868 S   0  0  0  0  0  0  0  0  0  0  0  0
   -0.4824    0.2571    2.0004 C   0  0  0  0  0  0  0  0  0  0  0  0
   -2.2287    0.2681    1.5602 S   0  0  0  0  0  0  0  0  0  0  0  0
   -2.0207    0.8476   -0.4782 P   0  0  0  0  0  0  0  0  0  0  0  0
   -0.6819    2.2349   -0.8229 S   0  0  0  0  0  0  0  0  0  0  0  0
   -3.5242    1.0962   -0.9273 O   0  0  0  0  0  0  0  0  0  0  0  0
   -4.5101    1.8757   -0.2220 C   0  0  0  0  0  0  0  0  0  0  0  0
   -4.0977    3.3220   -0.0464 C   0  0  0  0  0  0  0  0  0  0  0  0
   -1.6572   -0.4384   -1.3131 O   0  0  0  0  0  0  0  0  0  0  0  0
   -2.4680   -1.6430   -1.3069 C   0  0  0  0  0  0  0  0  0  0  0  0
   -1.5821   -2.7983   -1.7230 C   0  0  0  0  0  0  0  0  0  0  0  0
    4.0605   -0.1573   -1.7530 H   0  0  0  0  0  0  0  0  0  0  0  0
    3.3208   -1.3729   -2.8084 H   0  0  0  0  0  0  0  0  0  0  0  0
    3.6970    0.2435   -3.4389 H   0  0  0  0  0  0  0  0  0  0  0  0
    1.2565    0.0760   -2.9740 H   0  0  0  0  0  0  0  0  0  0  0  0
    2.0199    1.2288   -1.8505 H   0  0  0  0  0  0  0  0  0  0  0  0
    4.1859   -1.0286    1.9756 H   0  0  0  0  0  0  0  0  0  0  0  0
    3.2397   -2.5024    2.3103 H   0  0  0  0  0  0  0  0  0  0  0  0
    4.6418   -3.7619    0.6640 H   0  0  0  0  0  0  0  0  0  0  0  0
    5.6038   -2.3084    0.3690 H   0  0  0  0  0  0  0  0  0  0  0  0
    5.6318   -3.0764    1.9630 H   0  0  0  0  0  0  0  0  0  0  0  0
    0.0230    1.1079    1.5338 H   0  0  0  0  0  0  0  0  0  0  0  0
   -0.4382    0.3215    3.0845 H   0  0  0  0  0  0  0  0  0  0  0  0
   -5.3982    1.7897   -0.8510 H   0  0  0  0  0  0  0  0  0  0  0  0
   -4.6935    1.4034    0.7468 H   0  0  0  0  0  0  0  0  0  0  0  0
   -3.8497    3.7653   -1.0079 H   0  0  0  0  0  0  0  0  0  0  0  0
   -4.9152    3.8765    0.4036 H   0  0  0  0  0  0  0  0  0  0  0  0
   -3.2235    3.3907    0.5992 H   0  0  0  0  0  0  0  0  0  0  0  0
   -2.8703   -1.7903   -0.3001 H   0  0  0  0  0  0  0  0  0  0  0  0
   -3.2909   -1.4903   -2.0077 H   0  0  0  0  0  0  0  0  0  0  0  0
   -1.1844   -2.6246   -2.7189 H   0  0  0  0  0  0  0  0  0  0  0  0
   -0.7507   -2.9001   -1.0294 H   0  0  0  0  0  0  0  0  0  0  0  0
   -2.1653   -3.7134   -1.7214 H   0  0  0  0  0  0  0  0  0  0  0  0
  1  2  1  0  0  0  0
  2  3  1  0  0  0  0
  3  4  2  0  0  0  0
  4  5  2  0  0  0  0
  4  6  2  0  0  0  0
  6  7  1  0  0  0  0
  7  8  1  0  0  0  0
  4  9  1  0  0  0  0
  9 10  1  0  0  0  0
 10 11  1  0  0  0  0
 11 12  1  0  0  0  0
 12 13  2  0  0  0  0
 12 14  2  0  0  0  0
 14 15  1  0  0  0  0
 15 16  1  0  0  0  0
 12 17  2  0  0  0  0
 17 18  1  0  0  0  0
 18 19  1  0  0  0  0
  1 20  1  0  0  0  0
  1 21  1  0  0  0  0
  1 22  1  0  0  0  0
  2 23  1  0  0  0  0
  2 24  1  0  0  0  0
  7 25  1  0  0  0  0
  7 26  1  0  0  0  0
  8 27  1  0  0  0  0
  8 28  1  0  0  0  0
  8 29  1  0  0  0  0
 10 30  1  0  0  0  0
 10 31  1  0  0  0  0
 15 32  1  0  0  0  0
 15 33  1  0  0  0  0
 16 34  1  0  0  0  0
 16 35  1  0  0  0  0
 16 36  1  0  0  0  0
 18 37  1  0  0  0  0
 18 38  1  0  0  0  0
 19 39  1  0  0  0  0
 19 40  1  0  0  0  0
 19 41  1  0  0  0  0
M  END
