 xtb: 6.7.1 (edcfbbe)
          04092505213D

 41 40  0     0  0            999 V2000
    1.6796   -1.5153   -3.0702 C   0  0  0  0  0  0  0  0  0  0  0  0
    2.0162   -2.0771   -1.7031 C   0  0  0  0  0  0  0  0  0  0  0  0
    2.9301   -1.2091   -1.0032 O   0  0  0  0  0  0  0  0  0  0  0  0
    2.4576   -0.0410   -0.0308 P   0  0  0  0  0  0  0  0  0  0  0  0
    1.3645    1.3890   -0.7977 S   0  0  0  0  0  0  0  0  0  0  0  0
    3.8378    0.5190    0.4675 O   0  0  0  0  0  0  0  0  0  0  0  0
    4.8537   -0.2985    1.1087 C   0  0  0  0  0  0  0  0  0  0  0  0
    4.9450    0.0468    2.5814 C   0  0  0  0  0  0  0  0  0  0  0  0
    1.6225   -1.1158    1.6265 S   0  0  0  0  0  0  0  0  0  0  0  0
   -0.0231   -0.3932    1.6854 C   0  0  0  0  0  0  0  0  0  0  0  0
   -1.0525   -0.9502    0.2884 S   0  0  0  0  0  0  0  0  0  0  0  0
   -2.4148    0.6873    0.2670 P   0  0  0  0  0  0  0  0  0  0  0  0
   -1.7609    2.3657    1.0323 S   0  0  0  0  0  0  0  0  0  0  0  0
   -3.6806    0.1897    1.0613 O   0  0  0  0  0  0  0  0  0  0  0  0
   -4.4132   -1.0155    0.7210 C   0  0  0  0  0  0  0  0  0  0  0  0
   -5.6144   -0.6899   -0.1423 C   0  0  0  0  0  0  0  0  0  0  0  0
   -2.9418    0.7297   -1.2281 O   0  0  0  0  0  0  0  0  0  0  0  0
   -2.0874    0.9673   -2.3669 C   0  0  0  0  0  0  0  0  0  0  0  0
   -1.9350   -0.3146   -3.1624 C   0  0  0  0  0  0  0  0  0  0  0  0
    1.1925   -0.5485   -2.9663 H   0  0  0  0  0  0  0  0  0  0  0  0
    2.5867   -1.3851   -3.6536 H   0  0  0  0  0  0  0  0  0  0  0  0
    1.0135   -2.1993   -3.5857 H   0  0  0  0  0  0  0  0  0  0  0  0
    2.5499   -3.0260   -1.7824 H   0  0  0  0  0  0  0  0  0  0  0  0
    1.1125   -2.2150   -1.1003 H   0  0  0  0  0  0  0  0  0  0  0  0
    4.6128   -1.3525    0.9598 H   0  0  0  0  0  0  0  0  0  0  0  0
    5.7785   -0.0535    0.5844 H   0  0  0  0  0  0  0  0  0  0  0  0
    5.7707   -0.5020    3.0230 H   0  0  0  0  0  0  0  0  0  0  0  0
    5.1169    1.1127    2.7033 H   0  0  0  0  0  0  0  0  0  0  0  0
    4.0247   -0.2224    3.0940 H   0  0  0  0  0  0  0  0  0  0  0  0
    0.0380    0.6978    1.6433 H   0  0  0  0  0  0  0  0  0  0  0  0
   -0.4687   -0.7282    2.6191 H   0  0  0  0  0  0  0  0  0  0  0  0
   -3.7358   -1.7102    0.2160 H   0  0  0  0  0  0  0  0  0  0  0  0
   -4.7166   -1.4285    1.6846 H   0  0  0  0  0  0  0  0  0  0  0  0
   -5.2949   -0.2580   -1.0867 H   0  0  0  0  0  0  0  0  0  0  0  0
   -6.1719   -1.6017   -0.3328 H   0  0  0  0  0  0  0  0  0  0  0  0
   -6.2558    0.0239    0.3673 H   0  0  0  0  0  0  0  0  0  0  0  0
   -2.5894    1.7425   -2.9488 H   0  0  0  0  0  0  0  0  0  0  0  0
   -1.1198    1.3492   -2.0274 H   0  0  0  0  0  0  0  0  0  0  0  0
   -1.4559   -1.0789   -2.5547 H   0  0  0  0  0  0  0  0  0  0  0  0
   -2.9101   -0.6733   -3.4789 H   0  0  0  0  0  0  0  0  0  0  0  0
   -1.3234   -0.1174   -4.0367 H   0  0  0  0  0  0  0  0  0  0  0  0
  1  2  1  0  0  0  0
  2  3  1  0  0  0  0
  3  4  2  0  0  0  0
  4  5  2  0  0  0  0
  4  6  2  0  0  0  0
  6  7  1  0  0  0  0
  7  8  1  0  0  0  0
  4  9  1  0  0  0  0
  9 10  1  0  0  0  0
 10 11  1  0  0  0  0
 11 12  1  0  0  0  0
 12 13  2  0  0  0  0
 12 14  2  0  0  0  0
 14 15  1  0  0  0  0
 15 16  1  0  0  0  0
 12 17  2  0  0  0  0
 17 18  1  0  0  0  0
 18 19  1  0  0  0  0
  1 20  1  0  0  0  0
  1 21  1  0  0  0  0
  1 22  1  0  0  0  0
  2 23  1  0  0  0  0
  2 24  1  0  0  0  0
  7 25  1  0  0  0  0
  7 26  1  0  0  0  0
  8 27  1  0  0  0  0
  8 28  1  0  0  0  0
  8 29  1  0  0  0  0
 10 30  1  0  0  0  0
 10 31  1  0  0  0  0
 15 32  1  0  0  0  0
 15 33  1  0  0  0  0
 16 34  1  0  0  0  0
 16 35  1  0  0  0  0
 16 36  1  0  0  0  0
 18 37  1  0  0  0  0
 18 38  1  0  0  0  0
 19 39  1  0  0  0  0
 19 40  1  0  0  0  0
 19 41  1  0  0  0  0
M  END
