 xtb: 6.7.1 (edcfbbe)
          04092505213D

 41 40  0     0  0            999 V2000
    1.4353   -1.6159    2.7076 C   0  0  0  0  0  0  0  0  0  0  0  0
    2.9072   -1.3609    2.4550 C   0  0  0  0  0  0  0  0  0  0  0  0
    3.1286   -0.1179    1.7627 O   0  0  0  0  0  0  0  0  0  0  0  0
    2.9234    0.0360    0.2008 P   0  0  0  0  0  0  0  0  0  0  0  0
    3.3127   -1.5603   -0.8770 S   0  0  0  0  0  0  0  0  0  0  0  0
    3.9101    1.2620    0.0236 O   0  0  0  0  0  0  0  0  0  0  0  0
    4.4668    1.6237   -1.2525 C   0  0  0  0  0  0  0  0  0  0  0  0
    3.4192    2.1291   -2.2248 C   0  0  0  0  0  0  0  0  0  0  0  0
    0.9882    0.9041   -0.0623 S   0  0  0  0  0  0  0  0  0  0  0  0
    0.1784   -0.4198   -1.0082 C   0  0  0  0  0  0  0  0  0  0  0  0
   -1.1328   -1.2364   -0.0789 S   0  0  0  0  0  0  0  0  0  0  0  0
   -2.6143    0.2653   -0.4069 P   0  0  0  0  0  0  0  0  0  0  0  0
   -2.6518    0.9136   -2.2549 S   0  0  0  0  0  0  0  0  0  0  0  0
   -2.4023    1.4537    0.6008 O   0  0  0  0  0  0  0  0  0  0  0  0
   -2.7047    1.4504    2.0190 C   0  0  0  0  0  0  0  0  0  0  0  0
   -1.6764    0.6755    2.8160 C   0  0  0  0  0  0  0  0  0  0  0  0
   -3.9400   -0.4199    0.1301 O   0  0  0  0  0  0  0  0  0  0  0  0
   -4.5445   -1.5228   -0.5792 C   0  0  0  0  0  0  0  0  0  0  0  0
   -5.9423   -1.7160   -0.0278 C   0  0  0  0  0  0  0  0  0  0  0  0
    0.9932   -0.7744    3.2336 H   0  0  0  0  0  0  0  0  0  0  0  0
    0.9076   -1.7637    1.7657 H   0  0  0  0  0  0  0  0  0  0  0  0
    1.3267   -2.5118    3.3102 H   0  0  0  0  0  0  0  0  0  0  0  0
    3.3472   -2.1732    1.8670 H   0  0  0  0  0  0  0  0  0  0  0  0
    3.4586   -1.2422    3.3888 H   0  0  0  0  0  0  0  0  0  0  0  0
    5.1926    2.4005   -1.0076 H   0  0  0  0  0  0  0  0  0  0  0  0
    4.9832    0.7512   -1.6655 H   0  0  0  0  0  0  0  0  0  0  0  0
    2.7526    1.3178   -2.5157 H   0  0  0  0  0  0  0  0  0  0  0  0
    2.8300    2.9220   -1.7701 H   0  0  0  0  0  0  0  0  0  0  0  0
    3.9107    2.5117   -3.1137 H   0  0  0  0  0  0  0  0  0  0  0  0
    0.9225   -1.1758   -1.2708 H   0  0  0  0  0  0  0  0  0  0  0  0
   -0.2648    0.0250   -1.9010 H   0  0  0  0  0  0  0  0  0  0  0  0
   -2.6915    2.5110    2.2751 H   0  0  0  0  0  0  0  0  0  0  0  0
   -3.7072    1.0438    2.1594 H   0  0  0  0  0  0  0  0  0  0  0  0
   -1.8608    0.8299    3.8747 H   0  0  0  0  0  0  0  0  0  0  0  0
   -1.7411   -0.3876    2.5954 H   0  0  0  0  0  0  0  0  0  0  0  0
   -0.6777    1.0303    2.5705 H   0  0  0  0  0  0  0  0  0  0  0  0
   -4.5615   -1.2819   -1.6470 H   0  0  0  0  0  0  0  0  0  0  0  0
   -3.9246   -2.4093   -0.4221 H   0  0  0  0  0  0  0  0  0  0  0  0
   -5.8966   -1.9358    1.0347 H   0  0  0  0  0  0  0  0  0  0  0  0
   -6.5309   -0.8152   -0.1780 H   0  0  0  0  0  0  0  0  0  0  0  0
   -6.4166   -2.5432   -0.5455 H   0  0  0  0  0  0  0  0  0  0  0  0
  1  2  1  0  0  0  0
  2  3  1  0  0  0  0
  3  4  2  0  0  0  0
  4  5  2  0  0  0  0
  4  6  2  0  0  0  0
  6  7  1  0  0  0  0
  7  8  1  0  0  0  0
  4  9  1  0  0  0  0
  9 10  1  0  0  0  0
 10 11  1  0  0  0  0
 11 12  1  0  0  0  0
 12 13  2  0  0  0  0
 12 14  2  0  0  0  0
 14 15  1  0  0  0  0
 15 16  1  0  0  0  0
 12 17  2  0  0  0  0
 17 18  1  0  0  0  0
 18 19  1  0  0  0  0
  1 20  1  0  0  0  0
  1 21  1  0  0  0  0
  1 22  1  0  0  0  0
  2 23  1  0  0  0  0
  2 24  1  0  0  0  0
  7 25  1  0  0  0  0
  7 26  1  0  0  0  0
  8 27  1  0  0  0  0
  8 28  1  0  0  0  0
  8 29  1  0  0  0  0
 10 30  1  0  0  0  0
 10 31  1  0  0  0  0
 15 32  1  0  0  0  0
 15 33  1  0  0  0  0
 16 34  1  0  0  0  0
 16 35  1  0  0  0  0
 16 36  1  0  0  0  0
 18 37  1  0  0  0  0
 18 38  1  0  0  0  0
 19 39  1  0  0  0  0
 19 40  1  0  0  0  0
 19 41  1  0  0  0  0
M  END
