38
 xtb: 6.7.1 (edcfbbe)
C            2.41453343652223       -3.61256648292528       -0.31494252688290
C            3.28841164811488       -2.38173492091375       -0.35735008478749
O            2.48526419961850       -1.19370217527587       -0.66436887311039
C            2.19711983312595       -0.95496746124466       -1.94869183443387
O            2.60746560962822       -1.61954873137992       -2.88366204869818
C            1.33774933612638        0.27382459256186       -2.11928658265241
C            0.40393986608515        0.61591386433723       -0.95445612021809
H           -0.14535518130675        1.52537585672807       -1.22734533733905
C            1.11678212728553        0.92851048169124        0.35779091834418
O            0.83600073082910        0.46514984592807        1.44367711471922
O            2.06348721551183        1.84780209500552        0.14064133576424
C            2.78108960932754        2.35123600152116        1.31872450722003
C            1.97926689975982        3.42871893516309        2.00854633963921
S           -0.83791299233798       -0.73485427290568       -0.77878845548826
P           -2.33218334318346        0.18860302539246        0.41386052118460
S           -2.46565774172121        2.12034041089220        0.26853165284060
O           -3.61543776472851       -0.69537975314814       -0.00394976465302
C           -4.26666851056551       -0.47533345177506       -1.28675259610503
O           -2.14591762654005       -0.27460091983794        1.93755051316750
C           -1.86286470069438       -1.66375037202773        2.28146105503906
H            1.61445129909100       -3.49412178045413        0.42168446675465
H            1.97149375670681       -3.82200337898706       -1.29238256265223
H            3.02649954679414       -4.47194857858002       -0.02355918754823
H            4.08881245995007       -2.46192296179311       -1.09670966693548
H            3.71814958795407       -2.15743793985015        0.62029361987102
H            0.76239271172119        0.15761853906039       -3.04005398472087
H            2.02089092413193        1.11731864125883       -2.27591699134333
H            3.00194980258570        1.50785629999781        1.97718564570051
H            3.71209828942989        2.74212320534964        0.90532525175234
H            1.76079685742053        4.24980638703369        1.31988847184519
H            1.03962612345660        3.03604427219112        2.40625845226250
H            2.56580439067775        3.82659916289459        2.84266716293546
H           -4.69571867424287        0.52925463384187       -1.31750849382250
H           -5.05544720427998       -1.22505503317805       -1.34651913139720
H           -3.55657363776240       -0.61298127531537       -2.10688899587595
H           -1.91771271735902       -1.70821475539584        3.36905842233829
H           -0.85832018229033       -1.93038399958131        1.94400232525723
H           -2.60841362016438       -2.32974266334909        1.84054538280542
