 xtb: 6.7.1 (edcfbbe)
          04092507313D

 38 37  0     0  0            999 V2000
    5.4876   -1.6991   -1.2902 C   0  0  0  0  0  0  0  0  0  0  0  0
    4.7252   -1.2855   -0.0415 C   0  0  0  0  0  0  0  0  0  0  0  0
    3.3262   -1.6110   -0.1600 O   0  0  0  0  0  0  0  0  0  0  0  0
    2.5246   -0.7440   -0.7413 C   0  0  0  0  0  0  0  0  0  0  0  0
    2.8719    0.3348   -1.1764 O   0  0  0  0  0  0  0  0  0  0  0  0
    1.0988   -1.2513   -0.7841 C   0  0  0  0  0  0  0  0  0  0  0  0
    0.2078   -0.1993   -1.4217 C   0  0  0  0  0  0  0  0  0  0  0  0
    0.4469   -0.0586   -2.4791 H   0  0  0  0  0  0  0  0  0  0  0  0
    0.2917    1.1587   -0.7512 C   0  0  0  0  0  0  0  0  0  0  0  0
    0.0020    2.1864   -1.3242 O   0  0  0  0  0  0  0  0  0  0  0  0
    0.6438    1.0662    0.5117 O   0  0  0  0  0  0  0  0  0  0  0  0
    0.8290    2.2688    1.2813 C   0  0  0  0  0  0  0  0  0  0  0  0
    2.3031    2.4337    1.6079 C   0  0  0  0  0  0  0  0  0  0  0  0
   -1.5523   -0.6829   -1.4231 S   0  0  0  0  0  0  0  0  0  0  0  0
   -2.1485   -0.1745    0.5610 P   0  0  0  0  0  0  0  0  0  0  0  0
   -1.1785   -0.9357    2.0774 S   0  0  0  0  0  0  0  0  0  0  0  0
   -2.2667    1.4021    0.6479 O   0  0  0  0  0  0  0  0  0  0  0  0
   -3.0522    2.1982   -0.2646 C   0  0  0  0  0  0  0  0  0  0  0  0
   -3.6875   -0.5931    0.4950 O   0  0  0  0  0  0  0  0  0  0  0  0
   -4.0794   -1.9727    0.4990 C   0  0  0  0  0  0  0  0  0  0  0  0
    5.3372   -2.7569   -1.4868 H   0  0  0  0  0  0  0  0  0  0  0  0
    5.1416   -1.1252   -2.1470 H   0  0  0  0  0  0  0  0  0  0  0  0
    6.5456   -1.5087   -1.1434 H   0  0  0  0  0  0  0  0  0  0  0  0
    4.8202   -0.2099    0.1322 H   0  0  0  0  0  0  0  0  0  0  0  0
    5.0596   -1.8435    0.8330 H   0  0  0  0  0  0  0  0  0  0  0  0
    0.7867   -1.4689    0.2410 H   0  0  0  0  0  0  0  0  0  0  0  0
    1.0602   -2.1812   -1.3525 H   0  0  0  0  0  0  0  0  0  0  0  0
    0.4487    3.1134    0.7004 H   0  0  0  0  0  0  0  0  0  0  0  0
    0.2298    2.1327    2.1844 H   0  0  0  0  0  0  0  0  0  0  0  0
    2.8811    2.4775    0.6869 H   0  0  0  0  0  0  0  0  0  0  0  0
    2.4464    3.3522    2.1668 H   0  0  0  0  0  0  0  0  0  0  0  0
    2.6486    1.5918    2.2014 H   0  0  0  0  0  0  0  0  0  0  0  0
   -2.4076    2.5386   -1.0758 H   0  0  0  0  0  0  0  0  0  0  0  0
   -3.4073    3.0438    0.3187 H   0  0  0  0  0  0  0  0  0  0  0  0
   -3.8883    1.6217   -0.6535 H   0  0  0  0  0  0  0  0  0  0  0  0
   -5.1437   -1.9732    0.7202 H   0  0  0  0  0  0  0  0  0  0  0  0
   -3.5290   -2.5153    1.2688 H   0  0  0  0  0  0  0  0  0  0  0  0
   -3.8872   -2.4128   -0.4787 H   0  0  0  0  0  0  0  0  0  0  0  0
  1  2  1  0  0  0  0
  2  3  1  0  0  0  0
  3  4  1  0  0  0  0
  4  5  2  0  0  0  0
  4  6  1  0  0  0  0
  6  7  1  0  0  0  0
  7  8  1  0  0  0  0
  7  9  1  0  0  0  0
  9 10  2  0  0  0  0
  9 11  1  0  0  0  0
 11 12  1  0  0  0  0
 12 13  1  0  0  0  0
  7 14  1  0  0  0  0
 14 15  1  0  0  0  0
 15 16  2  0  0  0  0
 15 17  2  0  0  0  0
 17 18  1  0  0  0  0
 15 19  2  0  0  0  0
 19 20  1  0  0  0  0
  1 21  1  0  0  0  0
  1 22  1  0  0  0  0
  1 23  1  0  0  0  0
  2 24  1  0  0  0  0
  2 25  1  0  0  0  0
  6 26  1  0  0  0  0
  6 27  1  0  0  0  0
 12 28  1  0  0  0  0
 12 29  1  0  0  0  0
 13 30  1  0  0  0  0
 13 31  1  0  0  0  0
 13 32  1  0  0  0  0
 18 33  1  0  0  0  0
 18 34  1  0  0  0  0
 18 35  1  0  0  0  0
 20 36  1  0  0  0  0
 20 37  1  0  0  0  0
 20 38  1  0  0  0  0
M  END
