 xtb: 6.7.1 (edcfbbe)
          04092507313D

 38 37  0     0  0            999 V2000
    5.1094   -1.3681   -2.4130 C   0  0  0  0  0  0  0  0  0  0  0  0
    4.1772   -0.3144   -1.8362 C   0  0  0  0  0  0  0  0  0  0  0  0
    2.8772   -0.8691   -1.5613 O   0  0  0  0  0  0  0  0  0  0  0  0
    2.6782   -1.4516   -0.3965 C   0  0  0  0  0  0  0  0  0  0  0  0
    3.5135   -1.5710    0.4704 O   0  0  0  0  0  0  0  0  0  0  0  0
    1.2526   -1.9649   -0.2721 C   0  0  0  0  0  0  0  0  0  0  0  0
    0.2598   -0.8074   -0.3952 C   0  0  0  0  0  0  0  0  0  0  0  0
    0.3628   -0.3220   -1.3692 H   0  0  0  0  0  0  0  0  0  0  0  0
    0.4980    0.2157    0.6977 C   0  0  0  0  0  0  0  0  0  0  0  0
   -0.3180    0.4604    1.5636 O   0  0  0  0  0  0  0  0  0  0  0  0
    1.6682    0.7805    0.5801 O   0  0  0  0  0  0  0  0  0  0  0  0
    2.0807    1.7260    1.5916 C   0  0  0  0  0  0  0  0  0  0  0  0
    2.6369    1.0016    2.8063 C   0  0  0  0  0  0  0  0  0  0  0  0
   -1.4462   -1.4433   -0.2228 S   0  0  0  0  0  0  0  0  0  0  0  0
   -2.4768    0.3904    0.0130 P   0  0  0  0  0  0  0  0  0  0  0  0
   -1.6405    2.0033   -0.7451 S   0  0  0  0  0  0  0  0  0  0  0  0
   -3.8593    0.0236   -0.7014 O   0  0  0  0  0  0  0  0  0  0  0  0
   -3.9237   -0.2074   -2.1125 C   0  0  0  0  0  0  0  0  0  0  0  0
   -3.1142    0.4794    1.4602 O   0  0  0  0  0  0  0  0  0  0  0  0
   -2.7985    1.4549    2.4560 C   0  0  0  0  0  0  0  0  0  0  0  0
    4.6699   -1.8102   -3.3029 H   0  0  0  0  0  0  0  0  0  0  0  0
    6.0556   -0.9055   -2.6734 H   0  0  0  0  0  0  0  0  0  0  0  0
    5.2890   -2.1504   -1.6792 H   0  0  0  0  0  0  0  0  0  0  0  0
    3.9868    0.4847   -2.5527 H   0  0  0  0  0  0  0  0  0  0  0  0
    4.5831    0.0955   -0.9073 H   0  0  0  0  0  0  0  0  0  0  0  0
    1.1394   -2.4632    0.6909 H   0  0  0  0  0  0  0  0  0  0  0  0
    1.0584   -2.6780   -1.0736 H   0  0  0  0  0  0  0  0  0  0  0  0
    2.8439    2.3261    1.0968 H   0  0  0  0  0  0  0  0  0  0  0  0
    1.2205    2.3470    1.8561 H   0  0  0  0  0  0  0  0  0  0  0  0
    1.8461    0.4554    3.3154 H   0  0  0  0  0  0  0  0  0  0  0  0
    3.4048    0.2960    2.4970 H   0  0  0  0  0  0  0  0  0  0  0  0
    3.0651    1.7250    3.4916 H   0  0  0  0  0  0  0  0  0  0  0  0
   -3.4368   -1.1505   -2.3623 H   0  0  0  0  0  0  0  0  0  0  0  0
   -3.4453    0.6143   -2.6491 H   0  0  0  0  0  0  0  0  0  0  0  0
   -4.9832   -0.2496   -2.3516 H   0  0  0  0  0  0  0  0  0  0  0  0
   -3.7416    1.7117    2.9334 H   0  0  0  0  0  0  0  0  0  0  0  0
   -2.3522    2.3390    1.9969 H   0  0  0  0  0  0  0  0  0  0  0  0
   -2.1024    1.0224    3.1721 H   0  0  0  0  0  0  0  0  0  0  0  0
  1  2  1  0  0  0  0
  2  3  1  0  0  0  0
  3  4  1  0  0  0  0
  4  5  2  0  0  0  0
  4  6  1  0  0  0  0
  6  7  1  0  0  0  0
  7  8  1  0  0  0  0
  7  9  1  0  0  0  0
  9 10  2  0  0  0  0
  9 11  4  0  0  0  0
 11 12  1  0  0  0  0
 12 13  1  0  0  0  0
  7 14  1  0  0  0  0
 14 15  1  0  0  0  0
 15 16  2  0  0  0  0
 15 17  1  0  0  0  0
 17 18  1  0  0  0  0
 15 19  2  0  0  0  0
 19 20  1  0  0  0  0
  1 21  1  0  0  0  0
  1 22  1  0  0  0  0
  1 23  1  0  0  0  0
  2 24  1  0  0  0  0
  2 25  1  0  0  0  0
  6 26  1  0  0  0  0
  6 27  1  0  0  0  0
 12 28  1  0  0  0  0
 12 29  1  0  0  0  0
 13 30  1  0  0  0  0
 13 31  1  0  0  0  0
 13 32  1  0  0  0  0
 18 33  1  0  0  0  0
 18 34  1  0  0  0  0
 18 35  1  0  0  0  0
 20 36  1  0  0  0  0
 20 37  1  0  0  0  0
 20 38  1  0  0  0  0
M  END
