 xtb: 6.7.1 (edcfbbe)
          04032519453D

  8  7  0     0  0            999 V2000
   -0.5167   -0.0004   -0.5534 C   0  0  0  0  0  0  0  0  0  0  0  0
    0.5167    0.0003    0.5534 C   0  0  0  0  0  0  0  0  0  0  0  0
    2.1533   -0.0002   -0.1815 Cl  0  0  0  0  0  0  0  0  0  0  0  0
   -2.1533    0.0002    0.1815 Cl  0  0  0  0  0  0  0  0  0  0  0  0
   -0.4444   -0.8947   -1.1697 H   0  0  0  0  0  0  0  0  0  0  0  0
   -0.4443    0.8932   -1.1710 H   0  0  0  0  0  0  0  0  0  0  0  0
    0.4444    0.8947    1.1697 H   0  0  0  0  0  0  0  0  0  0  0  0
    0.4443   -0.8932    1.1710 H   0  0  0  0  0  0  0  0  0  0  0  0
  1  2  1  0  0  0  0
  2  3  1  0  0  0  0
  1  4  1  0  0  0  0
  1  5  1  0  0  0  0
  1  6  1  0  0  0  0
  2  7  1  0  0  0  0
  2  8  1  0  0  0  0
M  END
