 xtb: 6.7.1 (edcfbbe)
          04032519413D

  8  7  0     0  0            999 V2000
   -0.6122   -0.4418    1.2926 C   0  0  0  0  0  0  0  0  0  0  0  0
    0.6122    0.4406    1.2927 C   0  0  0  0  0  0  0  0  0  0  0  0
    1.7899    0.0528   -0.2367 Br  0  0  0  0  0  0  0  0  0  0  0  0
   -1.7893   -0.0520   -0.2368 Br  0  0  0  0  0  0  0  0  0  0  0  0
   -1.2070   -0.2631    2.1883 H   0  0  0  0  0  0  0  0  0  0  0  0
   -0.3542   -1.4975    1.2155 H   0  0  0  0  0  0  0  0  0  0  0  0
    0.3542    1.4963    1.2167 H   0  0  0  0  0  0  0  0  0  0  0  0
    1.2074    0.2610    2.1879 H   0  0  0  0  0  0  0  0  0  0  0  0
  1  2  1  0  0  0  0
  2  3  1  0  0  0  0
  1  4  1  0  0  0  0
  1  5  1  0  0  0  0
  1  6  1  0  0  0  0
  2  7  1  0  0  0  0
  2  8  1  0  0  0  0
M  END
