41
 xtb: 6.7.1 (edcfbbe)
C            5.93733555259929       -1.13449415532164       -0.14971043669979
C            4.54472488804795       -1.58349608511296        0.21016367466868
O            3.73038961231711       -0.39595515823079        0.51820573102703
P            2.39261404551265       -0.06157954110027       -0.31381231727608
S            2.50159113994221       -0.19265719506622       -2.25587879309162
O            2.01867164516673        1.37054720098014        0.30124305298602
C            2.61415511652378        2.60866588741995       -0.24024478635960
C            1.55933398989107        3.38067551199807       -0.98967248865448
S            0.98366766411287       -1.32823334035878        0.62526163177114
C           -0.34158146564284       -1.37466585089365       -0.64724336312788
S           -1.25359933011612        0.19651343293316       -0.95018476876814
P           -2.87007514429459        0.03324277743216        0.40213293225114
S           -4.09169371957677        1.51592486754475        0.09321458358977
O           -2.25752012907178       -0.15149267739902        1.87699681320300
C           -2.01870318982998        0.98650092951812        2.77661692056074
C           -0.78183085707769        1.76861242516133        2.41104190308921
O           -3.43954262875170       -1.46548696064517        0.27544510248397
C           -4.46005481885924       -1.84183927364515       -0.71286599078061
C           -3.89227226084858       -2.01869671227983       -2.09988797993570
H            5.93143592376480       -0.53690728266790       -1.06584922620436
H            6.37847289909136       -0.54467548391897        0.65887290754592
H            6.56475775124091       -2.01634591893528       -0.31442863067601
H            4.53063513938414       -2.19424429628847        1.11645817478804
H            4.07824325710907       -2.14455159774567       -0.60527230738558
H            2.97340195238086        3.15058176460532        0.63778367289042
H            3.46917978763890        2.35756289673232       -0.87506921895122
H            0.70153493355032        3.59131780572377       -0.34405612629874
H            1.98367928189626        4.33360015986710       -1.32259097115977
H            1.21778539295059        2.82612755192893       -1.86799130724971
H           -1.03509831368099       -2.15862214249769       -0.32982391185636
H            0.10209669582894       -1.65797558017817       -1.60551087152751
H           -2.91517387663040        1.61386772578462        2.77787552467284
H           -1.91640500726101        0.51331552872673        3.75531813765513
H           -0.89203897744698        2.27969984440020        1.45045648773230
H           -0.61621102857170        2.52731069111365        3.18340179994003
H            0.09509620672912        1.11818214170182        2.36933608301719
H           -4.85064966693275       -2.78249359047751       -0.31975397110986
H           -5.25441294714748       -1.08956406459247       -0.68819676342362
H           -4.67037603209621       -2.45669098394519       -2.73384855919968
H           -3.58943478076393       -1.06616308412061       -2.54135709940901
H           -3.03428780059652       -2.69791987920957       -2.09093717598659
