41
 xtb: 6.7.1 (edcfbbe)
C            3.08652856903518        0.21171442573978        3.34086864767308
C            1.77728919892508       -0.28621965808616        2.78001809587119
O            1.53083220495646        0.22296243617118        1.42171994922098
P            2.35711421809677       -0.32479741669509        0.15663525179512
S            2.85568568214211       -2.20759190886223        0.17665590007193
O            3.54813956576014        0.75715992634853        0.07296142939935
C            4.83880308191414        0.48197149606630       -0.57403018867468
C            4.75828120214924        0.60809064496796       -2.07490649655523
S            1.12651375251367        0.30386960874669       -1.44709923832043
C           -0.00656687058458       -1.13053167804294       -1.60729224880927
S           -1.15110996144696       -1.48625706158866       -0.21709430527512
P           -2.36352740926699        0.24986062127401       -0.24091690682464
S           -2.84263713727209        0.94804463599536       -1.99522784596425
O           -1.53489839096718        1.22534483019985        0.73080106479539
C           -1.75035247577547        2.68063822072190        0.72799624273176
C           -3.05708933306362        3.05908671974535        1.38066203279022
O           -3.56791932487589       -0.20264727579155        0.72936258163250
C           -4.85861218461584       -0.69770919236861        0.22865701729583
C           -4.78612340479144       -2.14329500504376       -0.19532181469483
H            3.16567373975872       -0.11464156913256        4.38316642632753
H            3.94185705145122       -0.19502042123076        2.79261667662368
H            3.13346803502079        1.30420430244399        3.31680502029771
H            0.92452915399817        0.08935289760476        3.34911657580622
H            1.73247567882831       -1.37923431736013        2.74895483909018
H            5.50346652542138        1.23322119180609       -0.14280463742664
H            5.17410765900405       -0.51195640119005       -0.26316599423117
H            5.76811475089716        0.50721674090956       -2.48601062051497
H            4.13276585286859       -0.17455933943869       -2.51327958366278
H            4.36394944543848        1.58607901766163       -2.36596260792752
H            0.58184861755770       -2.04397760093645       -1.73576653019949
H           -0.58553652743595       -0.94038821603686       -2.51587990268329
H           -0.89384155853344        3.06391064718880        1.28626385702875
H           -1.68913311537975        3.03356996777323       -0.30603051027668
H           -3.91573282113221        2.70596906497287        0.80131160702104
H           -3.12008883263195        2.65494886068240        2.39503165988162
H           -3.11357308219695        4.15107537027026        1.43943399114317
H           -5.52896733896487       -0.56164941847795        1.07965420463474
H           -5.18217426641854       -0.04635957432938       -0.58864195657337
H           -4.40354299270836       -2.77151749246097        0.61443891666800
H           -5.79685980396026       -2.48205387699853       -0.44577708634903
H           -4.15480895326000       -2.27413885485930       -1.07865012822709
