 xtb: 6.7.1 (edcfbbe)
          04092505203D

 41 40  0     0  0            999 V2000
    4.0152   -1.9235   -1.0553 C   0  0  0  0  0  0  0  0  0  0  0  0
    4.4113   -0.4646   -1.1580 C   0  0  0  0  0  0  0  0  0  0  0  0
    3.6077    0.3859   -0.3240 O   0  0  0  0  0  0  0  0  0  0  0  0
    2.0408    0.5895   -0.5483 P   0  0  0  0  0  0  0  0  0  0  0  0
    1.5117    0.6562   -2.4331 S   0  0  0  0  0  0  0  0  0  0  0  0
    1.8014    1.9438    0.2236 O   0  0  0  0  0  0  0  0  0  0  0  0
    2.5384    2.3853    1.3901 C   0  0  0  0  0  0  0  0  0  0  0  0
    2.3969    1.4394    2.5638 C   0  0  0  0  0  0  0  0  0  0  0  0
    1.1441   -0.9528    0.6205 S   0  0  0  0  0  0  0  0  0  0  0  0
    0.0251   -1.7003   -0.6071 C   0  0  0  0  0  0  0  0  0  0  0  0
   -1.6296   -2.0373    0.0458 S   0  0  0  0  0  0  0  0  0  0  0  0
   -2.3839   -0.0703    0.3317 P   0  0  0  0  0  0  0  0  0  0  0  0
   -1.2917    1.4257   -0.3418 S   0  0  0  0  0  0  0  0  0  0  0  0
   -2.7780    0.0165    1.8620 O   0  0  0  0  0  0  0  0  0  0  0  0
   -1.8398    0.3621    2.8970 C   0  0  0  0  0  0  0  0  0  0  0  0
   -1.1951   -0.8705    3.5020 C   0  0  0  0  0  0  0  0  0  0  0  0
   -3.8719   -0.1360   -0.2005 O   0  0  0  0  0  0  0  0  0  0  0  0
   -4.2171    0.1540   -1.5657 C   0  0  0  0  0  0  0  0  0  0  0  0
   -3.6005   -0.8270   -2.5434 C   0  0  0  0  0  0  0  0  0  0  0  0
    3.9846   -2.2384   -0.0153 H   0  0  0  0  0  0  0  0  0  0  0  0
    3.0331   -2.0701   -1.5028 H   0  0  0  0  0  0  0  0  0  0  0  0
    4.7380   -2.5273   -1.5944 H   0  0  0  0  0  0  0  0  0  0  0  0
    4.3221   -0.1165   -2.1918 H   0  0  0  0  0  0  0  0  0  0  0  0
    5.4263   -0.2961   -0.7951 H   0  0  0  0  0  0  0  0  0  0  0  0
    3.5862    2.5020    1.1059 H   0  0  0  0  0  0  0  0  0  0  0  0
    2.0986    3.3613    1.6024 H   0  0  0  0  0  0  0  0  0  0  0  0
    2.8340    0.4716    2.3234 H   0  0  0  0  0  0  0  0  0  0  0  0
    2.9140    1.8598    3.4207 H   0  0  0  0  0  0  0  0  0  0  0  0
    1.3485    1.2967    2.8135 H   0  0  0  0  0  0  0  0  0  0  0  0
    0.4171   -2.6727   -0.8944 H   0  0  0  0  0  0  0  0  0  0  0  0
   -0.0279   -1.0254   -1.4657 H   0  0  0  0  0  0  0  0  0  0  0  0
   -1.0915    1.0456    2.4787 H   0  0  0  0  0  0  0  0  0  0  0  0
   -2.4400    0.8963    3.6362 H   0  0  0  0  0  0  0  0  0  0  0  0
   -0.5333   -1.3546    2.7866 H   0  0  0  0  0  0  0  0  0  0  0  0
   -0.6167   -0.5779    4.3725 H   0  0  0  0  0  0  0  0  0  0  0  0
   -1.9647   -1.5758    3.8026 H   0  0  0  0  0  0  0  0  0  0  0  0
   -5.3066    0.0977   -1.5744 H   0  0  0  0  0  0  0  0  0  0  0  0
   -3.8973    1.1757   -1.7953 H   0  0  0  0  0  0  0  0  0  0  0  0
   -4.0051   -0.6474   -3.5346 H   0  0  0  0  0  0  0  0  0  0  0  0
   -2.5197   -0.6889   -2.5800 H   0  0  0  0  0  0  0  0  0  0  0  0
   -3.8180   -1.8490   -2.2432 H   0  0  0  0  0  0  0  0  0  0  0  0
  1  2  1  0  0  0  0
  2  3  1  0  0  0  0
  3  4  2  0  0  0  0
  4  5  2  0  0  0  0
  4  6  2  0  0  0  0
  6  7  1  0  0  0  0
  7  8  1  0  0  0  0
  4  9  1  0  0  0  0
  9 10  1  0  0  0  0
 10 11  1  0  0  0  0
 11 12  1  0  0  0  0
 12 13  2  0  0  0  0
 12 14  2  0  0  0  0
 14 15  1  0  0  0  0
 15 16  1  0  0  0  0
 12 17  2  0  0  0  0
 17 18  1  0  0  0  0
 18 19  1  0  0  0  0
  1 20  1  0  0  0  0
  1 21  1  0  0  0  0
  1 22  1  0  0  0  0
  2 23  1  0  0  0  0
  2 24  1  0  0  0  0
  7 25  1  0  0  0  0
  7 26  1  0  0  0  0
  8 27  1  0  0  0  0
  8 28  1  0  0  0  0
  8 29  1  0  0  0  0
 10 30  1  0  0  0  0
 10 31  1  0  0  0  0
 15 32  1  0  0  0  0
 15 33  1  0  0  0  0
 16 34  1  0  0  0  0
 16 35  1  0  0  0  0
 16 36  1  0  0  0  0
 18 37  1  0  0  0  0
 18 38  1  0  0  0  0
 19 39  1  0  0  0  0
 19 40  1  0  0  0  0
 19 41  1  0  0  0  0
M  END
