38
 xtb: 6.7.1 (edcfbbe)
C            5.13587902991952       -3.05373662726908       -1.25041922846325
C            4.73890372476587       -2.07337162836707       -0.17198673146914
O            3.27934272401451       -2.01774623347938       -0.03224322921495
C            2.61669474047452       -1.22390546956887       -0.88726568509780
O            3.15094889865374       -0.52094779254521       -1.72772006513434
C            1.12464007250069       -1.35522470121133       -0.71041474389676
C            0.40934334850308       -0.05676733113878       -1.05535642117640
H            0.69361720023129        0.26035967166873       -2.06791286384925
C            0.83274893496310        1.08352433719166       -0.13847032719419
O            1.74275414354367        0.96989867411477        0.66149467046581
O            0.16416978327692        2.20922471797015       -0.38434410861323
C            0.58290651413649        3.40610606897304        0.36153588199562
C           -0.08046187938468        3.46831847623191        1.71612270558298
S           -1.42260654863755       -0.28240854568861       -1.23303213408341
P           -2.20094088227484       -0.19023570255032        0.74105656974352
S           -1.10754581457420       -0.89098427190132        2.18164571342877
O           -2.63870007460239        1.32140932121702        1.04033371479589
C           -3.36130761718835        2.12816662096427        0.06213500665707
O           -3.63618267418802       -0.87436290553852        0.47080310493712
C           -3.74596002089919       -2.32282358126013        0.36015950732537
H            4.74021698919116       -4.05015205590845       -1.03351871417445
H            4.77871200957276       -2.73378318545847       -2.23295989635685
H            6.22794822871547       -3.11897976698366       -1.28651536069265
H            5.10906901061567       -1.06469192799903       -0.37001917491660
H            5.08134230534703       -2.39747426180038        0.81217674394993
H            0.88901117588106       -1.68565958744141        0.30200820579310
H            0.80002695201003       -2.13916380275737       -1.40471224603949
H            1.67297570434832        3.39889664272156        0.43360629777114
H            0.26630499801231        4.22973150318556       -0.28053927828455
H            0.17717578029423        2.59986224631307        2.32883831687763
H            0.26957046339878        4.36801586379650        2.23230497821905
H           -1.16733162500884        3.52968977994031        1.61938979616075
H           -4.20210881679456        1.56915494213373       -0.35575829905364
H           -2.67789633665670        2.44721780259700       -0.72858283602579
H           -3.72853091141388        2.99307793853788        0.61535190060286
H           -3.10204955890351       -2.69727488016634       -0.44039907595486
H           -4.79097273621871       -2.51850077207797        0.12090175056227
H           -3.48039693125425       -2.78734224293924        1.31274807979601
