 xtb: 6.7.1 (edcfbbe)
          04092505203D

 41 40  0     0  0            999 V2000
    4.5552    1.4168   -1.1600 C   0  0  0  0  0  0  0  0  0  0  0  0
    4.7542    0.0571   -0.5229 C   0  0  0  0  0  0  0  0  0  0  0  0
    3.5353   -0.7071   -0.4607 O   0  0  0  0  0  0  0  0  0  0  0  0
    2.3025   -0.2723    0.4431 P   0  0  0  0  0  0  0  0  0  0  0  0
    2.7480    0.4737    2.1917 S   0  0  0  0  0  0  0  0  0  0  0  0
    1.4700   -1.6076    0.5592 O   0  0  0  0  0  0  0  0  0  0  0  0
    1.2051   -2.4828   -0.5643 C   0  0  0  0  0  0  0  0  0  0  0  0
    2.2042   -3.6192   -0.6064 C   0  0  0  0  0  0  0  0  0  0  0  0
    1.1620    0.9949   -0.8485 S   0  0  0  0  0  0  0  0  0  0  0  0
    0.2632    1.8619    0.4596 C   0  0  0  0  0  0  0  0  0  0  0  0
   -0.8857    0.8058    1.3878 S   0  0  0  0  0  0  0  0  0  0  0  0
   -2.2583    0.3355   -0.1588 P   0  0  0  0  0  0  0  0  0  0  0  0
   -1.8025   -0.9907   -1.5333 S   0  0  0  0  0  0  0  0  0  0  0  0
   -2.5459    1.8004   -0.6833 O   0  0  0  0  0  0  0  0  0  0  0  0
   -3.1161    2.0435   -1.9881 C   0  0  0  0  0  0  0  0  0  0  0  0
   -4.5647    1.6093   -2.0551 C   0  0  0  0  0  0  0  0  0  0  0  0
   -3.5842   -0.0197    0.6449 O   0  0  0  0  0  0  0  0  0  0  0  0
   -3.8914   -1.3625    1.0505 C   0  0  0  0  0  0  0  0  0  0  0  0
   -2.9745   -1.8364    2.1601 C   0  0  0  0  0  0  0  0  0  0  0  0
    5.5224    1.8870   -1.3056 H   0  0  0  0  0  0  0  0  0  0  0  0
    4.0535    1.3169   -2.1194 H   0  0  0  0  0  0  0  0  0  0  0  0
    3.9510    2.0483   -0.5106 H   0  0  0  0  0  0  0  0  0  0  0  0
    5.1441    0.1625    0.4940 H   0  0  0  0  0  0  0  0  0  0  0  0
    5.4223   -0.5699   -1.1151 H   0  0  0  0  0  0  0  0  0  0  0  0
    0.1904   -2.8506   -0.3982 H   0  0  0  0  0  0  0  0  0  0  0  0
    1.2220   -1.8977   -1.4879 H   0  0  0  0  0  0  0  0  0  0  0  0
    2.1997   -4.1510    0.3412 H   0  0  0  0  0  0  0  0  0  0  0  0
    1.9259   -4.3013   -1.4036 H   0  0  0  0  0  0  0  0  0  0  0  0
    3.2043   -3.2371   -0.7919 H   0  0  0  0  0  0  0  0  0  0  0  0
   -0.2811    2.6768   -0.0097 H   0  0  0  0  0  0  0  0  0  0  0  0
    0.9747    2.2300    1.1999 H   0  0  0  0  0  0  0  0  0  0  0  0
   -3.0088    3.1204   -2.1238 H   0  0  0  0  0  0  0  0  0  0  0  0
   -2.5164    1.5109   -2.7332 H   0  0  0  0  0  0  0  0  0  0  0  0
   -4.9848    1.9039   -3.0116 H   0  0  0  0  0  0  0  0  0  0  0  0
   -4.6313    0.5266   -1.9575 H   0  0  0  0  0  0  0  0  0  0  0  0
   -5.1325    2.0700   -1.2510 H   0  0  0  0  0  0  0  0  0  0  0  0
   -4.9297   -1.3105    1.3804 H   0  0  0  0  0  0  0  0  0  0  0  0
   -3.8088   -2.0170    0.1759 H   0  0  0  0  0  0  0  0  0  0  0  0
   -1.9463   -1.8850    1.7992 H   0  0  0  0  0  0  0  0  0  0  0  0
   -3.0099   -1.1480    3.0008 H   0  0  0  0  0  0  0  0  0  0  0  0
   -3.2802   -2.8247    2.4882 H   0  0  0  0  0  0  0  0  0  0  0  0
  1  2  1  0  0  0  0
  2  3  1  0  0  0  0
  3  4  2  0  0  0  0
  4  5  2  0  0  0  0
  4  6  2  0  0  0  0
  6  7  1  0  0  0  0
  7  8  1  0  0  0  0
  4  9  1  0  0  0  0
  9 10  1  0  0  0  0
 10 11  1  0  0  0  0
 11 12  1  0  0  0  0
 12 13  2  0  0  0  0
 12 14  2  0  0  0  0
 14 15  1  0  0  0  0
 15 16  1  0  0  0  0
 12 17  2  0  0  0  0
 17 18  1  0  0  0  0
 18 19  1  0  0  0  0
  1 20  1  0  0  0  0
  1 21  1  0  0  0  0
  1 22  1  0  0  0  0
  2 23  1  0  0  0  0
  2 24  1  0  0  0  0
  7 25  1  0  0  0  0
  7 26  1  0  0  0  0
  8 27  1  0  0  0  0
  8 28  1  0  0  0  0
  8 29  1  0  0  0  0
 10 30  1  0  0  0  0
 10 31  1  0  0  0  0
 15 32  1  0  0  0  0
 15 33  1  0  0  0  0
 16 34  1  0  0  0  0
 16 35  1  0  0  0  0
 16 36  1  0  0  0  0
 18 37  1  0  0  0  0
 18 38  1  0  0  0  0
 19 39  1  0  0  0  0
 19 40  1  0  0  0  0
 19 41  1  0  0  0  0
M  END
