 xtb: 6.7.1 (edcfbbe)
          04092507313D

 38 37  0     0  0            999 V2000
    4.2607   -3.8134   -1.3709 C   0  0  0  0  0  0  0  0  0  0  0  0
    4.0253   -2.5408   -0.5794 C   0  0  0  0  0  0  0  0  0  0  0  0
    3.2492   -1.6375   -1.3931 O   0  0  0  0  0  0  0  0  0  0  0  0
    2.3835   -0.8399   -0.8193 C   0  0  0  0  0  0  0  0  0  0  0  0
    2.1783   -0.7812    0.3783 O   0  0  0  0  0  0  0  0  0  0  0  0
    1.6590    0.0354   -1.8202 C   0  0  0  0  0  0  0  0  0  0  0  0
    0.3659    0.5365   -1.1932 C   0  0  0  0  0  0  0  0  0  0  0  0
   -0.0961    1.3151   -1.8062 H   0  0  0  0  0  0  0  0  0  0  0  0
    0.6053    1.1030    0.1930 C   0  0  0  0  0  0  0  0  0  0  0  0
   -0.1145    0.8293    1.1379 O   0  0  0  0  0  0  0  0  0  0  0  0
    1.5576    1.9927    0.2033 O   0  0  0  0  0  0  0  0  0  0  0  0
    1.8767    2.6534    1.4475 C   0  0  0  0  0  0  0  0  0  0  0  0
    3.0074    1.9284    2.1579 C   0  0  0  0  0  0  0  0  0  0  0  0
   -0.8331   -0.8356   -1.0252 S   0  0  0  0  0  0  0  0  0  0  0  0
   -2.2765    0.0625    0.2404 P   0  0  0  0  0  0  0  0  0  0  0  0
   -2.6038    1.9981    0.0794 S   0  0  0  0  0  0  0  0  0  0  0  0
   -3.5549   -0.7699   -0.2691 O   0  0  0  0  0  0  0  0  0  0  0  0
   -4.0993   -0.5687   -1.5751 C   0  0  0  0  0  0  0  0  0  0  0  0
   -2.3131   -0.6294    1.6686 O   0  0  0  0  0  0  0  0  0  0  0  0
   -2.0106   -0.0083    2.9176 C   0  0  0  0  0  0  0  0  0  0  0  0
    4.8765   -4.4895   -0.7871 H   0  0  0  0  0  0  0  0  0  0  0  0
    3.3148   -4.2975   -1.5965 H   0  0  0  0  0  0  0  0  0  0  0  0
    4.7667   -3.5803   -2.3026 H   0  0  0  0  0  0  0  0  0  0  0  0
    4.9684   -2.0400   -0.3440 H   0  0  0  0  0  0  0  0  0  0  0  0
    3.4794   -2.7302    0.3495 H   0  0  0  0  0  0  0  0  0  0  0  0
    1.4626   -0.5288   -2.7305 H   0  0  0  0  0  0  0  0  0  0  0  0
    2.3013    0.8859   -2.0583 H   0  0  0  0  0  0  0  0  0  0  0  0
    2.1676    3.6620    1.1524 H   0  0  0  0  0  0  0  0  0  0  0  0
    0.9754    2.6839    2.0654 H   0  0  0  0  0  0  0  0  0  0  0  0
    3.9112    1.9601    1.5565 H   0  0  0  0  0  0  0  0  0  0  0  0
    3.1943    2.4035    3.1151 H   0  0  0  0  0  0  0  0  0  0  0  0
    2.7336    0.8880    2.3205 H   0  0  0  0  0  0  0  0  0  0  0  0
   -5.0574   -1.0820   -1.5737 H   0  0  0  0  0  0  0  0  0  0  0  0
   -3.4369   -0.9943   -2.3295 H   0  0  0  0  0  0  0  0  0  0  0  0
   -4.2399    0.4982   -1.7612 H   0  0  0  0  0  0  0  0  0  0  0  0
   -0.9833   -0.2378    3.1954 H   0  0  0  0  0  0  0  0  0  0  0  0
   -2.7123   -0.4292    3.6349 H   0  0  0  0  0  0  0  0  0  0  0  0
   -2.1391    1.0729    2.8477 H   0  0  0  0  0  0  0  0  0  0  0  0
  1  2  1  0  0  0  0
  2  3  1  0  0  0  0
  3  4  4  0  0  0  0
  4  5  2  0  0  0  0
  4  6  1  0  0  0  0
  6  7  1  0  0  0  0
  7  8  1  0  0  0  0
  7  9  1  0  0  0  0
  9 10  2  0  0  0  0
  9 11  4  0  0  0  0
 11 12  1  0  0  0  0
 12 13  1  0  0  0  0
  7 14  1  0  0  0  0
 14 15  1  0  0  0  0
 15 16  2  0  0  0  0
 15 17  1  0  0  0  0
 17 18  1  0  0  0  0
 15 19  2  0  0  0  0
 19 20  1  0  0  0  0
  1 21  1  0  0  0  0
  1 22  1  0  0  0  0
  1 23  1  0  0  0  0
  2 24  1  0  0  0  0
  2 25  1  0  0  0  0
  6 26  1  0  0  0  0
  6 27  1  0  0  0  0
 12 28  1  0  0  0  0
 12 29  1  0  0  0  0
 13 30  1  0  0  0  0
 13 31  1  0  0  0  0
 13 32  1  0  0  0  0
 18 33  1  0  0  0  0
 18 34  1  0  0  0  0
 18 35  1  0  0  0  0
 20 36  1  0  0  0  0
 20 37  1  0  0  0  0
 20 38  1  0  0  0  0
M  END
