 xtb: 6.7.1 (edcfbbe)
          04092505213D

 41 40  0     0  0            999 V2000
    5.5695    0.5752   -0.4379 C   0  0  0  0  0  0  0  0  0  0  0  0
    4.2866    1.1970   -0.9551 C   0  0  0  0  0  0  0  0  0  0  0  0
    3.2505    0.2032   -1.0998 O   0  0  0  0  0  0  0  0  0  0  0  0
    2.2073   -0.1202    0.0516 P   0  0  0  0  0  0  0  0  0  0  0  0
    2.9277   -0.6192    1.8087 S   0  0  0  0  0  0  0  0  0  0  0  0
    1.2905   -1.1963   -0.6491 O   0  0  0  0  0  0  0  0  0  0  0  0
    1.4710   -2.6131   -0.4578 C   0  0  0  0  0  0  0  0  0  0  0  0
    2.7663   -3.0928   -1.0762 C   0  0  0  0  0  0  0  0  0  0  0  0
    0.9568    1.5836    0.0340 S   0  0  0  0  0  0  0  0  0  0  0  0
    0.1671    1.2819    1.6357 C   0  0  0  0  0  0  0  0  0  0  0  0
   -0.8823   -0.2018    1.6593 S   0  0  0  0  0  0  0  0  0  0  0  0
   -2.1380    0.2208   -0.0087 P   0  0  0  0  0  0  0  0  0  0  0  0
   -1.6111   -0.4025   -1.7948 S   0  0  0  0  0  0  0  0  0  0  0  0
   -2.3488    1.7732    0.1826 O   0  0  0  0  0  0  0  0  0  0  0  0
   -2.7164    2.6269   -0.9235 C   0  0  0  0  0  0  0  0  0  0  0  0
   -4.1448    2.3795   -1.3580 C   0  0  0  0  0  0  0  0  0  0  0  0
   -3.5313   -0.3725    0.4741 O   0  0  0  0  0  0  0  0  0  0  0  0
   -3.8327   -1.7783    0.3937 C   0  0  0  0  0  0  0  0  0  0  0  0
   -5.3291   -1.9429    0.5680 C   0  0  0  0  0  0  0  0  0  0  0  0
    6.3427    1.3355   -0.3971 H   0  0  0  0  0  0  0  0  0  0  0  0
    5.4177    0.1702    0.5602 H   0  0  0  0  0  0  0  0  0  0  0  0
    5.8884   -0.2267   -1.0979 H   0  0  0  0  0  0  0  0  0  0  0  0
    4.4170    1.6007   -1.9609 H   0  0  0  0  0  0  0  0  0  0  0  0
    3.9358    1.9893   -0.2874 H   0  0  0  0  0  0  0  0  0  0  0  0
    1.4471   -2.8234    0.6168 H   0  0  0  0  0  0  0  0  0  0  0  0
    0.5974   -3.0521   -0.9425 H   0  0  0  0  0  0  0  0  0  0  0  0
    3.6094   -2.6366   -0.5579 H   0  0  0  0  0  0  0  0  0  0  0  0
    2.8338   -4.1721   -0.9837 H   0  0  0  0  0  0  0  0  0  0  0  0
    2.8046   -2.8127   -2.1257 H   0  0  0  0  0  0  0  0  0  0  0  0
   -0.4330    2.1578    1.8660 H   0  0  0  0  0  0  0  0  0  0  0  0
    0.9339    1.1106    2.3928 H   0  0  0  0  0  0  0  0  0  0  0  0
   -2.5750    3.6355   -0.5337 H   0  0  0  0  0  0  0  0  0  0  0  0
   -2.0203    2.4461   -1.7489 H   0  0  0  0  0  0  0  0  0  0  0  0
   -4.4156    3.0916   -2.1311 H   0  0  0  0  0  0  0  0  0  0  0  0
   -4.2357    1.3700   -1.7574 H   0  0  0  0  0  0  0  0  0  0  0  0
   -4.8184    2.4854   -0.5120 H   0  0  0  0  0  0  0  0  0  0  0  0
   -3.4960   -2.1512   -0.5800 H   0  0  0  0  0  0  0  0  0  0  0  0
   -3.2789   -2.2931    1.1844 H   0  0  0  0  0  0  0  0  0  0  0  0
   -5.8576   -1.4293   -0.2298 H   0  0  0  0  0  0  0  0  0  0  0  0
   -5.5766   -2.9989    0.5407 H   0  0  0  0  0  0  0  0  0  0  0  0
   -5.6372   -1.5244    1.5216 H   0  0  0  0  0  0  0  0  0  0  0  0
  1  2  1  0  0  0  0
  2  3  1  0  0  0  0
  3  4  2  0  0  0  0
  4  5  2  0  0  0  0
  4  6  2  0  0  0  0
  6  7  1  0  0  0  0
  7  8  1  0  0  0  0
  4  9  1  0  0  0  0
  9 10  1  0  0  0  0
 10 11  1  0  0  0  0
 11 12  1  0  0  0  0
 12 13  2  0  0  0  0
 12 14  2  0  0  0  0
 14 15  1  0  0  0  0
 15 16  1  0  0  0  0
 12 17  2  0  0  0  0
 17 18  1  0  0  0  0
 18 19  1  0  0  0  0
  1 20  1  0  0  0  0
  1 21  1  0  0  0  0
  1 22  1  0  0  0  0
  2 23  1  0  0  0  0
  2 24  1  0  0  0  0
  7 25  1  0  0  0  0
  7 26  1  0  0  0  0
  8 27  1  0  0  0  0
  8 28  1  0  0  0  0
  8 29  1  0  0  0  0
 10 30  1  0  0  0  0
 10 31  1  0  0  0  0
 15 32  1  0  0  0  0
 15 33  1  0  0  0  0
 16 34  1  0  0  0  0
 16 35  1  0  0  0  0
 16 36  1  0  0  0  0
 18 37  1  0  0  0  0
 18 38  1  0  0  0  0
 19 39  1  0  0  0  0
 19 40  1  0  0  0  0
 19 41  1  0  0  0  0
M  END
