 xtb: 6.7.1 (edcfbbe)
          04032519423D

 20 20  0     0  0            999 V2000
    0.6448    1.4615   -0.0939 C   0  0  0  0  0  0  0  0  0  0  0  0
    1.5115    0.1959    0.0865 C   0  0  0  0  0  0  0  0  0  0  0  0
    2.4395    0.2876   -0.4886 H   0  0  0  0  0  0  0  0  0  0  0  0
    0.7392   -1.0350   -0.4526 C   0  0  0  0  0  0  0  0  0  0  0  0
    1.2036   -1.9505   -0.0686 H   0  0  0  0  0  0  0  0  0  0  0  0
   -0.7123   -0.9770    0.0553 C   0  0  0  0  0  0  0  0  0  0  0  0
   -1.2723   -1.8405   -0.3175 H   0  0  0  0  0  0  0  0  0  0  0  0
   -1.3955    0.3276   -0.4702 C   0  0  0  0  0  0  0  0  0  0  0  0
   -2.0369    0.1148   -1.3347 H   0  0  0  0  0  0  0  0  0  0  0  0
   -0.4349    1.2284   -0.9843 O   0  0  0  0  0  0  0  0  0  0  0  0
   -2.1662    0.9148    0.5209 O   0  0  0  0  0  0  0  0  0  0  0  0
   -0.7738   -1.0302    1.4586 O   0  0  0  0  0  0  0  0  0  0  0  0
    0.8200   -1.1316   -1.8495 O   0  0  0  0  0  0  0  0  0  0  0  0
    1.7835    0.0601    1.4675 O   0  0  0  0  0  0  0  0  0  0  0  0
    1.2126    2.2791   -0.5350 H   0  0  0  0  0  0  0  0  0  0  0  0
    0.2680    1.7781    0.8854 H   0  0  0  0  0  0  0  0  0  0  0  0
   -1.9980    0.4251    1.3550 H   0  0  0  0  0  0  0  0  0  0  0  0
    0.0259   -0.6068    1.8306 H   0  0  0  0  0  0  0  0  0  0  0  0
    0.4589   -0.3217   -2.2431 H   0  0  0  0  0  0  0  0  0  0  0  0
    2.5576   -0.5028    1.6077 H   0  0  0  0  0  0  0  0  0  0  0  0
  1  2  1  0  0  0  0
  2  3  1  0  0  0  0
  2  4  1  0  0  0  0
  4  5  1  0  0  0  0
  4  6  1  0  0  0  0
  6  7  1  0  0  0  0
  6  8  1  0  0  0  0
  8  9  1  0  0  0  0
  1 10  1  0  0  0  0
  8 10  1  0  0  0  0
  8 11  1  0  0  0  0
  6 12  1  0  0  0  0
  4 13  1  0  0  0  0
  2 14  1  0  0  0  0
  1 15  1  0  0  0  0
  1 16  1  0  0  0  0
 11 17  1  0  0  0  0
 12 18  1  0  0  0  0
 13 19  1  0  0  0  0
 14 20  1  0  0  0  0
M  END
