41
 xtb: 6.7.1 (edcfbbe)
C            2.42253479184356       -2.79978800828047       -1.58407187822948
C            3.52825629080020       -2.24284323553634       -0.72301359676395
O            3.59692548668291       -0.76939430505951       -0.78010294382803
P            2.53426356241519        0.20384402518926       -0.06820800531061
S            3.32916901790902        1.80214858289248        0.70859747480440
O            1.70210773751052       -0.75052163764902        0.91663214636922
C            1.58609866241882       -0.55675149893381        2.36506914699075
C            2.61684231499893       -1.38995323285841        3.08506973393690
S            1.21622807621524        0.54935843544291       -1.69849307428426
C            0.25135403384090        1.97708443961051       -1.07212454280341
S           -0.73728559260033        1.73962321593572        0.45880409013578
P           -2.12285107638036        0.26563301574303       -0.16770293051356
S           -2.80740841742263        0.42454132384468       -1.98383227079962
O           -3.19574378053792        0.32721014246660        1.03378438964091
C           -4.47654538535455        1.03893771854461        0.92597973903263
C           -4.31413361756269        2.52816385760322        1.10077665432845
O           -1.32935968183819       -1.08294864382648        0.19688149887675
C           -1.72423488041593       -2.38519470342991       -0.36125536930807
C           -3.02739791030190       -2.88031755609595        0.21767400066033
H            2.51978898566719       -2.45824994635423       -2.61882746798378
H            2.49642686627630       -3.89239634812064       -1.57565507486317
H            1.43306283814496       -2.52619892655387       -1.20549286936510
H            4.51053413052542       -2.54913717924667       -1.08755404994933
H            3.42795600042621       -2.54116527634613        0.32341195540020
H            1.69115299428838        0.50829085908061        2.58893840612493
H            0.56684625734197       -0.87256961056277        2.60006491924760
H            2.50402525379728       -2.45021086594892        2.84303824643938
H            3.63116492961883       -1.06930632283077        2.82800775580692
H            2.48013827443644       -1.26687229179611        4.16461719983736
H           -0.41424764832499        2.26030170645237       -1.89278985109059
H            0.92665724585500        2.80800092634772       -0.84731251454233
H           -4.92954840197933        0.78557901250939       -0.03701248990413
H           -5.07700030251592        0.60373607961154        1.72735279267341
H           -5.30815259997410        2.98645669131430        1.11919978413257
H           -3.81094640626700        2.76043542271777        2.04382518358158
H           -3.74991250511389        2.97204567552413        0.27608791931258
H           -1.76567520986134       -2.29191609624535       -1.45107702419467
H           -0.89145606389168       -3.03789507295980       -0.09112277171494
H           -3.21020093900114       -3.89440585402131       -0.15291632221627
H           -2.98199874027605       -2.91503207038934        1.30986846490814
H           -3.87052159042975       -2.25174731840797       -0.08470286461612
