 xtb: 6.7.1 (edcfbbe)
          04092509483D

 38 37  0     0  0            999 V2000
    4.0364   -3.6781   -1.4460 C   0  0  0  0  0  0  0  0  0  0  0  0
    2.8366   -2.9751   -2.0610 C   0  0  0  0  0  0  0  0  0  0  0  0
    2.6162   -1.6901   -1.4479 O   0  0  0  0  0  0  0  0  0  0  0  0
    1.9483   -1.6464   -0.3120 C   0  0  0  0  0  0  0  0  0  0  0  0
    1.4959   -2.6120    0.2602 O   0  0  0  0  0  0  0  0  0  0  0  0
    1.7747   -0.2187    0.1715 C   0  0  0  0  0  0  0  0  0  0  0  0
    0.8319    0.5274   -0.7714 C   0  0  0  0  0  0  0  0  0  0  0  0
    1.3157    0.6713   -1.7431 H   0  0  0  0  0  0  0  0  0  0  0  0
    0.4212    1.8932   -0.2430 C   0  0  0  0  0  0  0  0  0  0  0  0
   -0.6821    2.3661   -0.4234 O   0  0  0  0  0  0  0  0  0  0  0  0
    1.4094    2.4837    0.3724 O   0  0  0  0  0  0  0  0  0  0  0  0
    1.1968    3.8072    0.9092 C   0  0  0  0  0  0  0  0  0  0  0  0
    2.4785    4.2371    1.5955 C   0  0  0  0  0  0  0  0  0  0  0  0
   -0.6706   -0.4240   -1.1939 S   0  0  0  0  0  0  0  0  0  0  0  0
   -1.9045   -0.0810    0.4973 P   0  0  0  0  0  0  0  0  0  0  0  0
   -1.0765    0.4374    2.1906 S   0  0  0  0  0  0  0  0  0  0  0  0
   -3.0783    0.8912    0.0904 O   0  0  0  0  0  0  0  0  0  0  0  0
   -3.8402    0.7397   -1.1231 C   0  0  0  0  0  0  0  0  0  0  0  0
   -2.7144   -1.4672    0.5514 O   0  0  0  0  0  0  0  0  0  0  0  0
   -2.1218   -2.6939    0.9890 C   0  0  0  0  0  0  0  0  0  0  0  0
    3.8455   -3.8963   -0.3977 H   0  0  0  0  0  0  0  0  0  0  0  0
    4.2140   -4.6102   -1.9721 H   0  0  0  0  0  0  0  0  0  0  0  0
    4.9194   -3.0496   -1.5222 H   0  0  0  0  0  0  0  0  0  0  0  0
    1.9313   -3.5768   -1.9411 H   0  0  0  0  0  0  0  0  0  0  0  0
    3.0043   -2.7475   -3.1135 H   0  0  0  0  0  0  0  0  0  0  0  0
    2.7382    0.2907    0.1706 H   0  0  0  0  0  0  0  0  0  0  0  0
    1.3695   -0.2398    1.1845 H   0  0  0  0  0  0  0  0  0  0  0  0
    0.9335    4.4722    0.0813 H   0  0  0  0  0  0  0  0  0  0  0  0
    0.3529    3.7645    1.6046 H   0  0  0  0  0  0  0  0  0  0  0  0
    2.7149    3.5529    2.4048 H   0  0  0  0  0  0  0  0  0  0  0  0
    3.2995    4.2414    0.8849 H   0  0  0  0  0  0  0  0  0  0  0  0
    2.3500    5.2356    1.9997 H   0  0  0  0  0  0  0  0  0  0  0  0
   -4.2952   -0.2486   -1.1590 H   0  0  0  0  0  0  0  0  0  0  0  0
   -3.1893    0.8902   -1.9841 H   0  0  0  0  0  0  0  0  0  0  0  0
   -4.5992    1.5161   -1.0771 H   0  0  0  0  0  0  0  0  0  0  0  0
   -1.2392   -2.9323    0.3941 H   0  0  0  0  0  0  0  0  0  0  0  0
   -2.8896   -3.4519    0.8535 H   0  0  0  0  0  0  0  0  0  0  0  0
   -1.8392   -2.6183    2.0392 H   0  0  0  0  0  0  0  0  0  0  0  0
  1  2  1  0  0  0  0
  2  3  1  0  0  0  0
  3  4  1  0  0  0  0
  4  5  2  0  0  0  0
  4  6  1  0  0  0  0
  6  7  1  0  0  0  0
  7  8  1  0  0  0  0
  7  9  1  0  0  0  0
  9 10  2  0  0  0  0
  9 11  4  0  0  0  0
 11 12  1  0  0  0  0
 12 13  1  0  0  0  0
  7 14  1  0  0  0  0
 14 15  1  0  0  0  0
 15 16  2  0  0  0  0
 15 17  2  0  0  0  0
 17 18  1  0  0  0  0
 15 19  1  0  0  0  0
 19 20  1  0  0  0  0
  1 21  1  0  0  0  0
  1 22  1  0  0  0  0
  1 23  1  0  0  0  0
  2 24  1  0  0  0  0
  2 25  1  0  0  0  0
  6 26  1  0  0  0  0
  6 27  1  0  0  0  0
 12 28  1  0  0  0  0
 12 29  1  0  0  0  0
 13 30  1  0  0  0  0
 13 31  1  0  0  0  0
 13 32  1  0  0  0  0
 18 33  1  0  0  0  0
 18 34  1  0  0  0  0
 18 35  1  0  0  0  0
 20 36  1  0  0  0  0
 20 37  1  0  0  0  0
 20 38  1  0  0  0  0
M  END
