 xtb: 6.7.1 (edcfbbe)
          04032520003D

 13 13  0     0  0            999 V2000
   -2.2191    0.0000    0.0000 C   0  0  0  0  0  0  0  0  0  0  0  0
   -1.5289   -1.2030    0.0000 C   0  0  0  0  0  0  0  0  0  0  0  0
   -0.1472   -1.2116   -0.0000 C   0  0  0  0  0  0  0  0  0  0  0  0
    0.5471    0.0000   -0.0000 C   0  0  0  0  0  0  0  0  0  0  0  0
   -0.1472    1.2116   -0.0000 C   0  0  0  0  0  0  0  0  0  0  0  0
   -1.5289    1.2030   -0.0000 C   0  0  0  0  0  0  0  0  0  0  0  0
    1.9578    0.0001    0.0001 C   0  0  0  0  0  0  0  0  0  0  0  0
    3.1068   -0.0002   -0.0001 N   0  0  0  0  0  0  0  0  0  0  0  0
   -3.2980   -0.0000    0.0000 H   0  0  0  0  0  0  0  0  0  0  0  0
   -2.0688   -2.1370    0.0000 H   0  0  0  0  0  0  0  0  0  0  0  0
    0.4024   -2.1407    0.0000 H   0  0  0  0  0  0  0  0  0  0  0  0
    0.4024    2.1408   -0.0000 H   0  0  0  0  0  0  0  0  0  0  0  0
   -2.0688    2.1370   -0.0000 H   0  0  0  0  0  0  0  0  0  0  0  0
  1  2  4  0  0  0  0
  2  3  4  0  0  0  0
  3  4  4  0  0  0  0
  4  5  4  0  0  0  0
  1  6  4  0  0  0  0
  5  6  4  0  0  0  0
  4  7  1  0  0  0  0
  7  8  3  0  0  0  0
  1  9  1  0  0  0  0
  2 10  1  0  0  0  0
  3 11  1  0  0  0  0
  5 12  1  0  0  0  0
  6 13  1  0  0  0  0
M  END
