 xtb: 6.7.1 (edcfbbe)
          04092514023D

 41 40  0     0  0            999 V2000
    5.8855   -0.2824    0.2760 C   0  0  0  0  0  0  0  0  0  0  0  0
    4.5697   -0.7434   -0.3206 C   0  0  0  0  0  0  0  0  0  0  0  0
    3.5051    0.0003    0.3091 O   0  0  0  0  0  0  0  0  0  0  0  0
    2.0604    0.1438   -0.3391 P   0  0  0  0  0  0  0  0  0  0  0  0
    2.0446    0.6314   -2.2422 S   0  0  0  0  0  0  0  0  0  0  0  0
    1.3641    1.1518    0.6627 O   0  0  0  0  0  0  0  0  0  0  0  0
    1.3518    2.5736    0.4338 C   0  0  0  0  0  0  0  0  0  0  0  0
    2.7140    3.1942    0.6588 C   0  0  0  0  0  0  0  0  0  0  0  0
    1.1508   -1.6789    0.1773 S   0  0  0  0  0  0  0  0  0  0  0  0
   -0.2151   -1.7478   -1.0405 C   0  0  0  0  0  0  0  0  0  0  0  0
   -1.8404   -1.9398   -0.2785 S   0  0  0  0  0  0  0  0  0  0  0  0
   -2.2475    0.0967    0.1831 P   0  0  0  0  0  0  0  0  0  0  0  0
   -1.6771    1.4007   -1.1594 S   0  0  0  0  0  0  0  0  0  0  0  0
   -1.5870    0.3950    1.5851 O   0  0  0  0  0  0  0  0  0  0  0  0
   -1.9531   -0.2968    2.8102 C   0  0  0  0  0  0  0  0  0  0  0  0
   -0.7958   -1.1477    3.2912 C   0  0  0  0  0  0  0  0  0  0  0  0
   -3.7946    0.0719    0.5547 O   0  0  0  0  0  0  0  0  0  0  0  0
   -4.8638    0.3152   -0.3779 C   0  0  0  0  0  0  0  0  0  0  0  0
   -5.0345   -0.8014   -1.3873 C   0  0  0  0  0  0  0  0  0  0  0  0
    6.6949   -0.8540   -0.1670 H   0  0  0  0  0  0  0  0  0  0  0  0
    6.0434    0.7733    0.0741 H   0  0  0  0  0  0  0  0  0  0  0  0
    5.8818   -0.4389    1.3507 H   0  0  0  0  0  0  0  0  0  0  0  0
    4.4007   -1.8067   -0.1313 H   0  0  0  0  0  0  0  0  0  0  0  0
    4.5325   -0.5605   -1.3998 H   0  0  0  0  0  0  0  0  0  0  0  0
    0.9998    2.7581   -0.5874 H   0  0  0  0  0  0  0  0  0  0  0  0
    0.6088    2.9450    1.1415 H   0  0  0  0  0  0  0  0  0  0  0  0
    3.4152    2.8306   -0.0912 H   0  0  0  0  0  0  0  0  0  0  0  0
    2.6323    4.2734    0.5717 H   0  0  0  0  0  0  0  0  0  0  0  0
    3.0866    2.9358    1.6464 H   0  0  0  0  0  0  0  0  0  0  0  0
   -0.0643   -2.6305   -1.6565 H   0  0  0  0  0  0  0  0  0  0  0  0
   -0.1937   -0.8378   -1.6462 H   0  0  0  0  0  0  0  0  0  0  0  0
   -2.1846    0.4982    3.5213 H   0  0  0  0  0  0  0  0  0  0  0  0
   -2.8462   -0.8977    2.6297 H   0  0  0  0  0  0  0  0  0  0  0  0
    0.1024   -0.5409    3.3736 H   0  0  0  0  0  0  0  0  0  0  0  0
   -1.0409   -1.5605    4.2646 H   0  0  0  0  0  0  0  0  0  0  0  0
   -0.6004   -1.9623    2.5975 H   0  0  0  0  0  0  0  0  0  0  0  0
   -5.7426    0.4096    0.2627 H   0  0  0  0  0  0  0  0  0  0  0  0
   -4.6692    1.2655   -0.8836 H   0  0  0  0  0  0  0  0  0  0  0  0
   -5.1587   -1.7573   -0.8856 H   0  0  0  0  0  0  0  0  0  0  0  0
   -5.9137   -0.5954   -1.9905 H   0  0  0  0  0  0  0  0  0  0  0  0
   -4.1655   -0.8551   -2.0405 H   0  0  0  0  0  0  0  0  0  0  0  0
  1  2  1  0  0  0  0
  2  3  1  0  0  0  0
  3  4  2  0  0  0  0
  4  5  2  0  0  0  0
  4  6  2  0  0  0  0
  6  7  1  0  0  0  0
  7  8  1  0  0  0  0
  4  9  1  0  0  0  0
  9 10  1  0  0  0  0
 10 11  1  0  0  0  0
 11 12  1  0  0  0  0
 12 13  2  0  0  0  0
 12 14  2  0  0  0  0
 14 15  1  0  0  0  0
 15 16  1  0  0  0  0
 12 17  2  0  0  0  0
 17 18  1  0  0  0  0
 18 19  1  0  0  0  0
  1 20  1  0  0  0  0
  1 21  1  0  0  0  0
  1 22  1  0  0  0  0
  2 23  1  0  0  0  0
  2 24  1  0  0  0  0
  7 25  1  0  0  0  0
  7 26  1  0  0  0  0
  8 27  1  0  0  0  0
  8 28  1  0  0  0  0
  8 29  1  0  0  0  0
 10 30  1  0  0  0  0
 10 31  1  0  0  0  0
 15 32  1  0  0  0  0
 15 33  1  0  0  0  0
 16 34  1  0  0  0  0
 16 35  1  0  0  0  0
 16 36  1  0  0  0  0
 18 37  1  0  0  0  0
 18 38  1  0  0  0  0
 19 39  1  0  0  0  0
 19 40  1  0  0  0  0
 19 41  1  0  0  0  0
M  END
