 xtb: 6.7.1 (edcfbbe)
          04092505213D

 41 40  0     0  0            999 V2000
    3.9650   -1.8735   -2.1649 C   0  0  0  0  0  0  0  0  0  0  0  0
    4.4866   -1.5598   -0.7781 C   0  0  0  0  0  0  0  0  0  0  0  0
    3.4286   -1.2719    0.1556 O   0  0  0  0  0  0  0  0  0  0  0  0
    2.4886    0.0018    0.0197 P   0  0  0  0  0  0  0  0  0  0  0  0
    3.3536    1.6582   -0.5480 S   0  0  0  0  0  0  0  0  0  0  0  0
    1.8648    0.1166    1.4633 O   0  0  0  0  0  0  0  0  0  0  0  0
    1.3008   -1.0165    2.1682 C   0  0  0  0  0  0  0  0  0  0  0  0
    2.2573   -1.4968    3.2397 C   0  0  0  0  0  0  0  0  0  0  0  0
    0.8851   -0.6888   -1.2197 S   0  0  0  0  0  0  0  0  0  0  0  0
    0.2383    0.9512   -1.6141 C   0  0  0  0  0  0  0  0  0  0  0  0
   -0.4700    1.7893   -0.1676 S   0  0  0  0  0  0  0  0  0  0  0  0
   -2.2140    0.6018   -0.0585 P   0  0  0  0  0  0  0  0  0  0  0  0
   -3.0479    0.1625   -1.7804 S   0  0  0  0  0  0  0  0  0  0  0  0
   -2.9658    1.5573    0.9570 O   0  0  0  0  0  0  0  0  0  0  0  0
   -4.1384    1.1577    1.7002 C   0  0  0  0  0  0  0  0  0  0  0  0
   -5.3942    1.2300    0.8541 C   0  0  0  0  0  0  0  0  0  0  0  0
   -1.8495   -0.6704    0.8324 O   0  0  0  0  0  0  0  0  0  0  0  0
   -1.9790   -2.0321    0.3772 C   0  0  0  0  0  0  0  0  0  0  0  0
   -3.3243   -2.5992    0.7843 C   0  0  0  0  0  0  0  0  0  0  0  0
    3.2048   -2.6492   -2.1195 H   0  0  0  0  0  0  0  0  0  0  0  0
    3.5295   -0.9804   -2.6105 H   0  0  0  0  0  0  0  0  0  0  0  0
    4.7876   -2.2096   -2.7880 H   0  0  0  0  0  0  0  0  0  0  0  0
    5.1619   -0.6995   -0.8067 H   0  0  0  0  0  0  0  0  0  0  0  0
    4.9948   -2.4179   -0.3360 H   0  0  0  0  0  0  0  0  0  0  0  0
    0.3677   -0.6443    2.5975 H   0  0  0  0  0  0  0  0  0  0  0  0
    1.0871   -1.8095    1.4462 H   0  0  0  0  0  0  0  0  0  0  0  0
    1.7910   -2.3014    3.7996 H   0  0  0  0  0  0  0  0  0  0  0  0
    3.1759   -1.8587    2.7855 H   0  0  0  0  0  0  0  0  0  0  0  0
    2.4981   -0.6805    3.9151 H   0  0  0  0  0  0  0  0  0  0  0  0
   -0.5318    0.8179   -2.3751 H   0  0  0  0  0  0  0  0  0  0  0  0
    1.0509    1.5818   -1.9743 H   0  0  0  0  0  0  0  0  0  0  0  0
   -3.9818    0.1487    2.0903 H   0  0  0  0  0  0  0  0  0  0  0  0
   -4.1760    1.8697    2.5267 H   0  0  0  0  0  0  0  0  0  0  0  0
   -5.3342    0.5325    0.0208 H   0  0  0  0  0  0  0  0  0  0  0  0
   -6.2545    0.9793    1.4666 H   0  0  0  0  0  0  0  0  0  0  0  0
   -5.5182    2.2324    0.4529 H   0  0  0  0  0  0  0  0  0  0  0  0
   -1.8594   -2.0614   -0.7097 H   0  0  0  0  0  0  0  0  0  0  0  0
   -1.1567   -2.5686    0.8513 H   0  0  0  0  0  0  0  0  0  0  0  0
   -4.1232   -2.0522    0.2872 H   0  0  0  0  0  0  0  0  0  0  0  0
   -3.3752   -3.6411    0.4853 H   0  0  0  0  0  0  0  0  0  0  0  0
   -3.4568   -2.5289    1.8605 H   0  0  0  0  0  0  0  0  0  0  0  0
  1  2  1  0  0  0  0
  2  3  1  0  0  0  0
  3  4  2  0  0  0  0
  4  5  2  0  0  0  0
  4  6  2  0  0  0  0
  6  7  1  0  0  0  0
  7  8  1  0  0  0  0
  4  9  1  0  0  0  0
  9 10  1  0  0  0  0
 10 11  1  0  0  0  0
 11 12  1  0  0  0  0
 12 13  2  0  0  0  0
 12 14  2  0  0  0  0
 14 15  1  0  0  0  0
 15 16  1  0  0  0  0
 12 17  2  0  0  0  0
 17 18  1  0  0  0  0
 18 19  1  0  0  0  0
  1 20  1  0  0  0  0
  1 21  1  0  0  0  0
  1 22  1  0  0  0  0
  2 23  1  0  0  0  0
  2 24  1  0  0  0  0
  7 25  1  0  0  0  0
  7 26  1  0  0  0  0
  8 27  1  0  0  0  0
  8 28  1  0  0  0  0
  8 29  1  0  0  0  0
 10 30  1  0  0  0  0
 10 31  1  0  0  0  0
 15 32  1  0  0  0  0
 15 33  1  0  0  0  0
 16 34  1  0  0  0  0
 16 35  1  0  0  0  0
 16 36  1  0  0  0  0
 18 37  1  0  0  0  0
 18 38  1  0  0  0  0
 19 39  1  0  0  0  0
 19 40  1  0  0  0  0
 19 41  1  0  0  0  0
M  END
