38
 xtb: 6.7.1 (edcfbbe)
C            3.58639396128772       -2.92243688216419       -2.95437618395597
C            2.96658118689863       -3.21630253059420       -1.61339529233279
O            2.70547255669947       -1.92644981927193       -0.96721111126139
C            2.15114209597538       -1.97039108613486        0.25065215221317
O            1.88701696405566       -3.00466062970956        0.83912084584415
C            1.91406453797222       -0.59436023238636        0.81464703839228
C            1.17096861090170        0.32060113445098       -0.15578680140447
H            1.79092466409947        0.50344210538783       -1.04350470354568
C            0.91658231114099        1.69248688466020        0.45274693321116
O            1.54372006503091        2.10701227698289        1.40874570205743
O           -0.00108303029924        2.38184037789481       -0.22040197473792
C           -0.32279142896840        3.72734072390212        0.26914214217746
C            0.65404220587178        4.74176696210427       -0.27405716978187
S           -0.32754418059486       -0.50370546860219       -0.88789843015912
P           -1.86997347553775       -0.16875384832352        0.53459226944884
S           -1.33930286839283        0.00771903776318        2.39289778845787
O           -2.74231860740263        1.09221465250982        0.06587457350544
C           -3.11510802668093        1.29932614175836       -1.32863297819831
O           -2.85230121931410       -1.38427049683416        0.13525211767315
C           -2.53086389595428       -2.74108096735735        0.55755838614455
H            4.53027708594042       -2.38225968661370       -2.84169073905462
H            3.79076068041166       -3.86770995451015       -3.46544819573118
H            2.91052876891787       -2.33286390594029       -3.57983876078392
H            3.63536241081605       -3.79125259589140       -0.96711716983095
H            2.01492799274816       -3.74751738152476       -1.70593322529520
H            2.88937776869367       -0.14626715896632        1.03865414723941
H            1.35960305082836       -0.70110439369915        1.74710289899427
H           -1.33485602077542        3.89807864713985       -0.10341855750584
H           -0.33648941123414        3.70170188238173        1.36160114564006
H            1.66746449310564        4.55532676433897        0.09061715424144
H            0.65837499028771        4.72846986298936       -1.36756857023311
H            0.34713012419060        5.73919647599299        0.05577055076512
H           -3.80179711912521        2.14560458819999       -1.32008820566807
H           -3.61527222215934        0.41439385407027       -1.72918328546102
H           -2.22723283309215        1.54040475660283       -1.91727398679739
H           -3.26059385910742       -3.38209339796769        0.06343791800650
H           -2.62710932512449       -2.82157610652117        1.64291709766357
H           -1.51900096550551       -3.01377918998082        0.24349459533388
