 xtb: 6.7.1 (edcfbbe)
          04092505213D

 41 40  0     0  0            999 V2000
    3.0241    2.4082   -0.8761 C   0  0  0  0  0  0  0  0  0  0  0  0
    2.2508    1.1766   -1.2953 C   0  0  0  0  0  0  0  0  0  0  0  0
    1.3079    0.7913   -0.2550 O   0  0  0  0  0  0  0  0  0  0  0  0
    1.6366   -0.3384    0.7966 P   0  0  0  0  0  0  0  0  0  0  0  0
    0.4926   -0.3361    2.3825 S   0  0  0  0  0  0  0  0  0  0  0  0
    3.1674   -0.0798    1.1270 O   0  0  0  0  0  0  0  0  0  0  0  0
    3.8606   -0.8772    2.1085 C   0  0  0  0  0  0  0  0  0  0  0  0
    5.1412   -0.1545    2.4736 C   0  0  0  0  0  0  0  0  0  0  0  0
    1.7686   -2.1459   -0.3418 S   0  0  0  0  0  0  0  0  0  0  0  0
    0.2328   -2.0445   -1.3037 C   0  0  0  0  0  0  0  0  0  0  0  0
   -1.2675   -1.8054   -0.3069 S   0  0  0  0  0  0  0  0  0  0  0  0
   -1.7911    0.1548   -0.9017 P   0  0  0  0  0  0  0  0  0  0  0  0
   -1.0465    0.8375   -2.5685 S   0  0  0  0  0  0  0  0  0  0  0  0
   -1.4821    0.9932    0.4192 O   0  0  0  0  0  0  0  0  0  0  0  0
   -1.2971    2.4199    0.3921 C   0  0  0  0  0  0  0  0  0  0  0  0
   -2.6084    3.1490    0.1849 C   0  0  0  0  0  0  0  0  0  0  0  0
   -3.3745    0.0663   -1.0057 O   0  0  0  0  0  0  0  0  0  0  0  0
   -4.1890   -0.4148    0.0914 C   0  0  0  0  0  0  0  0  0  0  0  0
   -5.5682    0.1959   -0.0481 C   0  0  0  0  0  0  0  0  0  0  0  0
    2.3406    3.2240   -0.6567 H   0  0  0  0  0  0  0  0  0  0  0  0
    3.6169    2.1969    0.0097 H   0  0  0  0  0  0  0  0  0  0  0  0
    3.6813    2.7018   -1.6886 H   0  0  0  0  0  0  0  0  0  0  0  0
    2.9202    0.3366   -1.4950 H   0  0  0  0  0  0  0  0  0  0  0  0
    1.6278    1.3722   -2.1715 H   0  0  0  0  0  0  0  0  0  0  0  0
    3.2068   -1.0047    2.9775 H   0  0  0  0  0  0  0  0  0  0  0  0
    4.0639   -1.8566    1.6670 H   0  0  0  0  0  0  0  0  0  0  0  0
    5.7551   -0.0148    1.5886 H   0  0  0  0  0  0  0  0  0  0  0  0
    4.9129    0.8164    2.9043 H   0  0  0  0  0  0  0  0  0  0  0  0
    5.6876   -0.7474    3.1996 H   0  0  0  0  0  0  0  0  0  0  0  0
    0.1440   -3.0084   -1.7993 H   0  0  0  0  0  0  0  0  0  0  0  0
    0.2971   -1.2336   -2.0345 H   0  0  0  0  0  0  0  0  0  0  0  0
   -0.8491    2.6428    1.3622 H   0  0  0  0  0  0  0  0  0  0  0  0
   -0.5872    2.6599   -0.4056 H   0  0  0  0  0  0  0  0  0  0  0  0
   -2.4305    4.2195    0.2108 H   0  0  0  0  0  0  0  0  0  0  0  0
   -3.0290    2.8819   -0.7847 H   0  0  0  0  0  0  0  0  0  0  0  0
   -3.3155    2.8832    0.9668 H   0  0  0  0  0  0  0  0  0  0  0  0
   -4.2252   -1.5049    0.0204 H   0  0  0  0  0  0  0  0  0  0  0  0
   -3.7145   -0.1349    1.0368 H   0  0  0  0  0  0  0  0  0  0  0  0
   -5.5139    1.2781    0.0321 H   0  0  0  0  0  0  0  0  0  0  0  0
   -5.9884   -0.0621   -1.0159 H   0  0  0  0  0  0  0  0  0  0  0  0
   -6.2082   -0.1912    0.7382 H   0  0  0  0  0  0  0  0  0  0  0  0
  1  2  1  0  0  0  0
  2  3  1  0  0  0  0
  3  4  2  0  0  0  0
  4  5  2  0  0  0  0
  4  6  2  0  0  0  0
  6  7  1  0  0  0  0
  7  8  1  0  0  0  0
  4  9  1  0  0  0  0
  9 10  1  0  0  0  0
 10 11  1  0  0  0  0
 11 12  1  0  0  0  0
 12 13  2  0  0  0  0
 12 14  1  0  0  0  0
 14 15  1  0  0  0  0
 15 16  1  0  0  0  0
 12 17  2  0  0  0  0
 17 18  1  0  0  0  0
 18 19  1  0  0  0  0
  1 20  1  0  0  0  0
  1 21  1  0  0  0  0
  1 22  1  0  0  0  0
  2 23  1  0  0  0  0
  2 24  1  0  0  0  0
  7 25  1  0  0  0  0
  7 26  1  0  0  0  0
  8 27  1  0  0  0  0
  8 28  1  0  0  0  0
  8 29  1  0  0  0  0
 10 30  1  0  0  0  0
 10 31  1  0  0  0  0
 15 32  1  0  0  0  0
 15 33  1  0  0  0  0
 16 34  1  0  0  0  0
 16 35  1  0  0  0  0
 16 36  1  0  0  0  0
 18 37  1  0  0  0  0
 18 38  1  0  0  0  0
 19 39  1  0  0  0  0
 19 40  1  0  0  0  0
 19 41  1  0  0  0  0
M  END
