 xtb: 6.7.1 (edcfbbe)
          04092505213D

 41 40  0     0  0            999 V2000
    2.4242    1.1046   -2.8183 C   0  0  0  0  0  0  0  0  0  0  0  0
    1.6798    1.4753   -1.5514 C   0  0  0  0  0  0  0  0  0  0  0  0
    1.6353    0.3293   -0.6868 O   0  0  0  0  0  0  0  0  0  0  0  0
    2.1772    0.3091    0.8147 P   0  0  0  0  0  0  0  0  0  0  0  0
    3.4813    1.7137    1.2095 S   0  0  0  0  0  0  0  0  0  0  0  0
    2.6650   -1.1935    0.9655 O   0  0  0  0  0  0  0  0  0  0  0  0
    3.8657   -1.6342    0.2880 C   0  0  0  0  0  0  0  0  0  0  0  0
    4.2979   -2.9427    0.9151 C   0  0  0  0  0  0  0  0  0  0  0  0
    0.5028    0.2141    2.0662 S   0  0  0  0  0  0  0  0  0  0  0  0
   -0.3022   -1.3001    1.3987 C   0  0  0  0  0  0  0  0  0  0  0  0
   -2.0763   -1.0802    1.1967 S   0  0  0  0  0  0  0  0  0  0  0  0
   -1.9807   -0.1136   -0.7042 P   0  0  0  0  0  0  0  0  0  0  0  0
   -0.9313   -1.0226   -2.0786 S   0  0  0  0  0  0  0  0  0  0  0  0
   -1.4213    1.3332   -0.3925 O   0  0  0  0  0  0  0  0  0  0  0  0
   -2.0491    2.2480    0.5400 C   0  0  0  0  0  0  0  0  0  0  0  0
   -2.9577    3.2181   -0.1856 C   0  0  0  0  0  0  0  0  0  0  0  0
   -3.5013    0.1654   -1.0654 O   0  0  0  0  0  0  0  0  0  0  0  0
   -4.3219   -0.8015   -1.7466 C   0  0  0  0  0  0  0  0  0  0  0  0
   -4.5670   -2.0402   -0.9102 C   0  0  0  0  0  0  0  0  0  0  0  0
    1.9437    0.2500   -3.2884 H   0  0  0  0  0  0  0  0  0  0  0  0
    2.4062    1.9479   -3.5007 H   0  0  0  0  0  0  0  0  0  0  0  0
    3.4564    0.8529   -2.5862 H   0  0  0  0  0  0  0  0  0  0  0  0
    0.6433    1.7452   -1.7649 H   0  0  0  0  0  0  0  0  0  0  0  0
    2.1764    2.2971   -1.0246 H   0  0  0  0  0  0  0  0  0  0  0  0
    3.6314   -1.7527   -0.7732 H   0  0  0  0  0  0  0  0  0  0  0  0
    4.6309   -0.8589    0.4033 H   0  0  0  0  0  0  0  0  0  0  0  0
    5.2000   -3.2906    0.4223 H   0  0  0  0  0  0  0  0  0  0  0  0
    4.4985   -2.8000    1.9732 H   0  0  0  0  0  0  0  0  0  0  0  0
    3.5156   -3.6874    0.8010 H   0  0  0  0  0  0  0  0  0  0  0  0
   -0.1561   -2.1014    2.1170 H   0  0  0  0  0  0  0  0  0  0  0  0
    0.1427   -1.5383    0.4321 H   0  0  0  0  0  0  0  0  0  0  0  0
   -2.6004    1.6706    1.2872 H   0  0  0  0  0  0  0  0  0  0  0  0
   -1.2153    2.7621    1.0237 H   0  0  0  0  0  0  0  0  0  0  0  0
   -3.7776    2.6845   -0.6585 H   0  0  0  0  0  0  0  0  0  0  0  0
   -3.3576    3.9281    0.5315 H   0  0  0  0  0  0  0  0  0  0  0  0
   -2.4004    3.7557   -0.9481 H   0  0  0  0  0  0  0  0  0  0  0  0
   -5.2482   -0.2609   -1.9461 H   0  0  0  0  0  0  0  0  0  0  0  0
   -3.8336   -1.0636   -2.6901 H   0  0  0  0  0  0  0  0  0  0  0  0
   -3.6421   -2.6027   -0.7948 H   0  0  0  0  0  0  0  0  0  0  0  0
   -4.9350   -1.7657    0.0752 H   0  0  0  0  0  0  0  0  0  0  0  0
   -5.2999   -2.6676   -1.4072 H   0  0  0  0  0  0  0  0  0  0  0  0
  1  2  1  0  0  0  0
  2  3  1  0  0  0  0
  3  4  2  0  0  0  0
  4  5  2  0  0  0  0
  4  6  2  0  0  0  0
  6  7  1  0  0  0  0
  7  8  1  0  0  0  0
  4  9  1  0  0  0  0
  9 10  1  0  0  0  0
 10 11  1  0  0  0  0
 11 12  1  0  0  0  0
 12 13  2  0  0  0  0
 12 14  2  0  0  0  0
 14 15  1  0  0  0  0
 15 16  1  0  0  0  0
 12 17  2  0  0  0  0
 17 18  1  0  0  0  0
 18 19  1  0  0  0  0
  1 20  1  0  0  0  0
  1 21  1  0  0  0  0
  1 22  1  0  0  0  0
  2 23  1  0  0  0  0
  2 24  1  0  0  0  0
  7 25  1  0  0  0  0
  7 26  1  0  0  0  0
  8 27  1  0  0  0  0
  8 28  1  0  0  0  0
  8 29  1  0  0  0  0
 10 30  1  0  0  0  0
 10 31  1  0  0  0  0
 15 32  1  0  0  0  0
 15 33  1  0  0  0  0
 16 34  1  0  0  0  0
 16 35  1  0  0  0  0
 16 36  1  0  0  0  0
 18 37  1  0  0  0  0
 18 38  1  0  0  0  0
 19 39  1  0  0  0  0
 19 40  1  0  0  0  0
 19 41  1  0  0  0  0
M  END
