 xtb: 6.7.1 (edcfbbe)
          04092513573D

 41 40  0     0  0            999 V2000
    4.2426   -1.0818   -2.4782 C   0  0  0  0  0  0  0  0  0  0  0  0
    4.4162   -1.4907   -1.0295 C   0  0  0  0  0  0  0  0  0  0  0  0
    3.1599   -1.6237   -0.3416 O   0  0  0  0  0  0  0  0  0  0  0  0
    2.2630   -0.3868    0.0978 P   0  0  0  0  0  0  0  0  0  0  0  0
    3.2475    1.2282    0.6241 S   0  0  0  0  0  0  0  0  0  0  0  0
    1.3403   -1.0317    1.2132 O   0  0  0  0  0  0  0  0  0  0  0  0
    1.6663   -0.9768    2.6179 C   0  0  0  0  0  0  0  0  0  0  0  0
    2.8355   -1.8735    2.9680 C   0  0  0  0  0  0  0  0  0  0  0  0
    0.8459   -0.1972   -1.4625 S   0  0  0  0  0  0  0  0  0  0  0  0
    0.2006    1.4351   -0.9979 C   0  0  0  0  0  0  0  0  0  0  0  0
   -0.8408    1.4265    0.4838 S   0  0  0  0  0  0  0  0  0  0  0  0
   -2.5282    0.4427   -0.3844 P   0  0  0  0  0  0  0  0  0  0  0  0
   -2.9531    0.9293   -2.2266 S   0  0  0  0  0  0  0  0  0  0  0  0
   -3.6800    0.6585    0.6931 O   0  0  0  0  0  0  0  0  0  0  0  0
   -4.6441    1.7265    0.6302 C   0  0  0  0  0  0  0  0  0  0  0  0
   -4.0394    3.0753    0.9604 C   0  0  0  0  0  0  0  0  0  0  0  0
   -2.2312   -1.0997   -0.2298 O   0  0  0  0  0  0  0  0  0  0  0  0
   -2.0310   -1.7253    1.0620 C   0  0  0  0  0  0  0  0  0  0  0  0
   -1.3622   -3.0634    0.8293 C   0  0  0  0  0  0  0  0  0  0  0  0
    3.8453   -0.0696   -2.5391 H   0  0  0  0  0  0  0  0  0  0  0  0
    5.2080   -1.1113   -2.9744 H   0  0  0  0  0  0  0  0  0  0  0  0
    3.5577   -1.7571   -2.9845 H   0  0  0  0  0  0  0  0  0  0  0  0
    5.0291   -0.7574   -0.4952 H   0  0  0  0  0  0  0  0  0  0  0  0
    4.8658   -2.4815   -0.9463 H   0  0  0  0  0  0  0  0  0  0  0  0
    1.8815    0.0635    2.8824 H   0  0  0  0  0  0  0  0  0  0  0  0
    0.7504   -1.3022    3.1133 H   0  0  0  0  0  0  0  0  0  0  0  0
    3.7455   -1.5023    2.4988 H   0  0  0  0  0  0  0  0  0  0  0  0
    2.9715   -1.8765    4.0453 H   0  0  0  0  0  0  0  0  0  0  0  0
    2.6505   -2.8877    2.6244 H   0  0  0  0  0  0  0  0  0  0  0  0
   -0.3872    1.7835   -1.8475 H   0  0  0  0  0  0  0  0  0  0  0  0
    1.0324    2.1071   -0.7862 H   0  0  0  0  0  0  0  0  0  0  0  0
   -5.0842    1.7358   -0.3716 H   0  0  0  0  0  0  0  0  0  0  0  0
   -5.3979    1.4356    1.3638 H   0  0  0  0  0  0  0  0  0  0  0  0
   -3.5250    3.0385    1.9171 H   0  0  0  0  0  0  0  0  0  0  0  0
   -3.3291    3.3671    0.1887 H   0  0  0  0  0  0  0  0  0  0  0  0
   -4.8321    3.8158    1.0066 H   0  0  0  0  0  0  0  0  0  0  0  0
   -1.4079   -1.0643    1.6723 H   0  0  0  0  0  0  0  0  0  0  0  0
   -3.0083   -1.8363    1.5357 H   0  0  0  0  0  0  0  0  0  0  0  0
   -1.9843   -3.6836    0.1905 H   0  0  0  0  0  0  0  0  0  0  0  0
   -0.3985   -2.9194    0.3468 H   0  0  0  0  0  0  0  0  0  0  0  0
   -1.2157   -3.5597    1.7834 H   0  0  0  0  0  0  0  0  0  0  0  0
  1  2  1  0  0  0  0
  2  3  1  0  0  0  0
  3  4  2  0  0  0  0
  4  5  2  0  0  0  0
  4  6  2  0  0  0  0
  6  7  1  0  0  0  0
  7  8  1  0  0  0  0
  4  9  1  0  0  0  0
  9 10  1  0  0  0  0
 10 11  1  0  0  0  0
 11 12  1  0  0  0  0
 12 13  2  0  0  0  0
 12 14  2  0  0  0  0
 14 15  1  0  0  0  0
 15 16  1  0  0  0  0
 12 17  2  0  0  0  0
 17 18  1  0  0  0  0
 18 19  1  0  0  0  0
  1 20  1  0  0  0  0
  1 21  1  0  0  0  0
  1 22  1  0  0  0  0
  2 23  1  0  0  0  0
  2 24  1  0  0  0  0
  7 25  1  0  0  0  0
  7 26  1  0  0  0  0
  8 27  1  0  0  0  0
  8 28  1  0  0  0  0
  8 29  1  0  0  0  0
 10 30  1  0  0  0  0
 10 31  1  0  0  0  0
 15 32  1  0  0  0  0
 15 33  1  0  0  0  0
 16 34  1  0  0  0  0
 16 35  1  0  0  0  0
 16 36  1  0  0  0  0
 18 37  1  0  0  0  0
 18 38  1  0  0  0  0
 19 39  1  0  0  0  0
 19 40  1  0  0  0  0
 19 41  1  0  0  0  0
M  END
