 xtb: 6.7.1 (edcfbbe)
          04092507313D

 38 37  0     0  0            999 V2000
    4.3289   -3.7082   -1.0092 C   0  0  0  0  0  0  0  0  0  0  0  0
    2.8132   -3.7222   -0.8899 C   0  0  0  0  0  0  0  0  0  0  0  0
    2.3319   -2.5094   -0.2777 O   0  0  0  0  0  0  0  0  0  0  0  0
    2.1375   -1.4556   -1.0437 C   0  0  0  0  0  0  0  0  0  0  0  0
    2.2883   -1.4356   -2.2451 O   0  0  0  0  0  0  0  0  0  0  0  0
    1.6871   -0.2571   -0.2299 C   0  0  0  0  0  0  0  0  0  0  0  0
    0.6364    0.5282   -1.0016 C   0  0  0  0  0  0  0  0  0  0  0  0
    1.0002    0.7041   -2.0210 H   0  0  0  0  0  0  0  0  0  0  0  0
    0.2771    1.8668   -0.3867 C   0  0  0  0  0  0  0  0  0  0  0  0
   -0.8524    2.3162   -0.4211 O   0  0  0  0  0  0  0  0  0  0  0  0
    1.3085    2.4750    0.1280 O   0  0  0  0  0  0  0  0  0  0  0  0
    1.0845    3.7489    0.7699 C   0  0  0  0  0  0  0  0  0  0  0  0
    2.3388    4.1095    1.5391 C   0  0  0  0  0  0  0  0  0  0  0  0
   -0.9034   -0.4205   -1.2342 S   0  0  0  0  0  0  0  0  0  0  0  0
   -1.8970    0.0203    0.5981 P   0  0  0  0  0  0  0  0  0  0  0  0
   -0.8190    0.5065    2.1570 S   0  0  0  0  0  0  0  0  0  0  0  0
   -3.1110    0.9971    0.3551 O   0  0  0  0  0  0  0  0  0  0  0  0
   -4.0061    0.8724   -0.7662 C   0  0  0  0  0  0  0  0  0  0  0  0
   -2.7067   -1.3512    0.8084 O   0  0  0  0  0  0  0  0  0  0  0  0
   -2.0325   -2.5640    1.1561 C   0  0  0  0  0  0  0  0  0  0  0  0
    4.6663   -4.6614   -1.4023 H   0  0  0  0  0  0  0  0  0  0  0  0
    4.6437   -2.9167   -1.6855 H   0  0  0  0  0  0  0  0  0  0  0  0
    4.7794   -3.5424   -0.0344 H   0  0  0  0  0  0  0  0  0  0  0  0
    2.4743   -4.5152   -0.2235 H   0  0  0  0  0  0  0  0  0  0  0  0
    2.3478   -3.8229   -1.8745 H   0  0  0  0  0  0  0  0  0  0  0  0
    2.5525    0.3889   -0.0646 H   0  0  0  0  0  0  0  0  0  0  0  0
    1.3138   -0.5888    0.7399 H   0  0  0  0  0  0  0  0  0  0  0  0
    0.8535    4.4843   -0.0063 H   0  0  0  0  0  0  0  0  0  0  0  0
    0.2148    3.6483    1.4269 H   0  0  0  0  0  0  0  0  0  0  0  0
    2.5337    3.3611    2.3014 H   0  0  0  0  0  0  0  0  0  0  0  0
    3.1880    4.1604    0.8647 H   0  0  0  0  0  0  0  0  0  0  0  0
    2.1990    5.0744    2.0145 H   0  0  0  0  0  0  0  0  0  0  0  0
   -4.7677    1.6303   -0.6030 H   0  0  0  0  0  0  0  0  0  0  0  0
   -4.4441   -0.1240   -0.7869 H   0  0  0  0  0  0  0  0  0  0  0  0
   -3.4628    1.0684   -1.6904 H   0  0  0  0  0  0  0  0  0  0  0  0
   -1.4528   -2.9241    0.3059 H   0  0  0  0  0  0  0  0  0  0  0  0
   -2.8165   -3.2714    1.4131 H   0  0  0  0  0  0  0  0  0  0  0  0
   -1.3755   -2.3950    2.0109 H   0  0  0  0  0  0  0  0  0  0  0  0
  1  2  1  0  0  0  0
  2  3  1  0  0  0  0
  3  4  1  0  0  0  0
  4  5  2  0  0  0  0
  4  6  1  0  0  0  0
  6  7  1  0  0  0  0
  7  8  1  0  0  0  0
  7  9  1  0  0  0  0
  9 10  2  0  0  0  0
  9 11  4  0  0  0  0
 11 12  1  0  0  0  0
 12 13  1  0  0  0  0
  7 14  1  0  0  0  0
 14 15  1  0  0  0  0
 15 16  2  0  0  0  0
 15 17  2  0  0  0  0
 17 18  1  0  0  0  0
 15 19  1  0  0  0  0
 19 20  1  0  0  0  0
  1 21  1  0  0  0  0
  1 22  1  0  0  0  0
  1 23  1  0  0  0  0
  2 24  1  0  0  0  0
  2 25  1  0  0  0  0
  6 26  1  0  0  0  0
  6 27  1  0  0  0  0
 12 28  1  0  0  0  0
 12 29  1  0  0  0  0
 13 30  1  0  0  0  0
 13 31  1  0  0  0  0
 13 32  1  0  0  0  0
 18 33  1  0  0  0  0
 18 34  1  0  0  0  0
 18 35  1  0  0  0  0
 20 36  1  0  0  0  0
 20 37  1  0  0  0  0
 20 38  1  0  0  0  0
M  END
