 xtb: 6.7.1 (edcfbbe)
          04032519473D

 22 24  0     0  0            999 V2000
    3.5677    0.6913    0.0014 C   0  0  0  0  0  0  0  0  0  0  0  0
    3.5677   -0.6914    0.0014 C   0  0  0  0  0  0  0  0  0  0  0  0
    2.3691   -1.3870    0.0006 C   0  0  0  0  0  0  0  0  0  0  0  0
    1.1686   -0.6973   -0.0002 C   0  0  0  0  0  0  0  0  0  0  0  0
    1.1686    0.6973   -0.0002 C   0  0  0  0  0  0  0  0  0  0  0  0
    2.3691    1.3869    0.0006 C   0  0  0  0  0  0  0  0  0  0  0  0
    0.0000    1.4302   -0.0008 O   0  0  0  0  0  0  0  0  0  0  0  0
   -1.1686    0.6973   -0.0001 C   0  0  0  0  0  0  0  0  0  0  0  0
   -2.3691    1.3870    0.0007 C   0  0  0  0  0  0  0  0  0  0  0  0
   -3.5677    0.6913    0.0015 C   0  0  0  0  0  0  0  0  0  0  0  0
   -3.5677   -0.6913    0.0015 C   0  0  0  0  0  0  0  0  0  0  0  0
   -2.3691   -1.3869    0.0007 C   0  0  0  0  0  0  0  0  0  0  0  0
   -1.1686   -0.6973   -0.0001 C   0  0  0  0  0  0  0  0  0  0  0  0
   -0.0000   -1.4302   -0.0009 O   0  0  0  0  0  0  0  0  0  0  0  0
    4.4973    1.2367    0.0020 H   0  0  0  0  0  0  0  0  0  0  0  0
    4.4973   -1.2368    0.0020 H   0  0  0  0  0  0  0  0  0  0  0  0
    2.3396   -2.4643    0.0006 H   0  0  0  0  0  0  0  0  0  0  0  0
    2.3396    2.4643    0.0006 H   0  0  0  0  0  0  0  0  0  0  0  0
   -2.3396    2.4643    0.0007 H   0  0  0  0  0  0  0  0  0  0  0  0
   -4.4973    1.2368    0.0022 H   0  0  0  0  0  0  0  0  0  0  0  0
   -4.4973   -1.2367    0.0021 H   0  0  0  0  0  0  0  0  0  0  0  0
   -2.3396   -2.4643    0.0006 H   0  0  0  0  0  0  0  0  0  0  0  0
  1  2  4  0  0  0  0
  2  3  4  0  0  0  0
  3  4  4  0  0  0  0
  4  5  4  0  0  0  0
  1  6  4  0  0  0  0
  5  6  4  0  0  0  0
  5  7  1  0  0  0  0
  7  8  1  0  0  0  0
  8  9  4  0  0  0  0
  9 10  4  0  0  0  0
 10 11  4  0  0  0  0
 11 12  4  0  0  0  0
  8 13  4  0  0  0  0
 12 13  4  0  0  0  0
  4 14  1  0  0  0  0
 13 14  1  0  0  0  0
  1 15  1  0  0  0  0
  2 16  1  0  0  0  0
  3 17  1  0  0  0  0
  6 18  1  0  0  0  0
  9 19  1  0  0  0  0
 10 20  1  0  0  0  0
 11 21  1  0  0  0  0
 12 22  1  0  0  0  0
M  END
