 xtb: 6.7.1 (edcfbbe)
          04092505213D

 41 40  0     0  0            999 V2000
    1.1975   -2.2648    1.8535 C   0  0  0  0  0  0  0  0  0  0  0  0
    2.1323   -2.4191    0.6701 C   0  0  0  0  0  0  0  0  0  0  0  0
    3.0447   -1.3066    0.6000 O   0  0  0  0  0  0  0  0  0  0  0  0
    2.8742   -0.1080   -0.4329 P   0  0  0  0  0  0  0  0  0  0  0  0
    2.6788   -0.6527   -2.3062 S   0  0  0  0  0  0  0  0  0  0  0  0
    4.1957    0.7095   -0.1938 O   0  0  0  0  0  0  0  0  0  0  0  0
    4.8596    0.8777    1.0852 C   0  0  0  0  0  0  0  0  0  0  0  0
    3.9835    1.5692    2.1069 C   0  0  0  0  0  0  0  0  0  0  0  0
    1.2877    1.1394    0.2817 S   0  0  0  0  0  0  0  0  0  0  0  0
    0.0563    0.8063   -0.9946 C   0  0  0  0  0  0  0  0  0  0  0  0
   -1.0075   -0.6097   -0.6115 S   0  0  0  0  0  0  0  0  0  0  0  0
   -2.8694    0.3960   -0.2955 P   0  0  0  0  0  0  0  0  0  0  0  0
   -2.9020    2.3026   -0.7455 S   0  0  0  0  0  0  0  0  0  0  0  0
   -3.3396    0.0729    1.1905 O   0  0  0  0  0  0  0  0  0  0  0  0
   -3.0092    0.9065    2.3125 C   0  0  0  0  0  0  0  0  0  0  0  0
   -1.5797    0.7007    2.7710 C   0  0  0  0  0  0  0  0  0  0  0  0
   -3.9038   -0.4200   -1.1582 O   0  0  0  0  0  0  0  0  0  0  0  0
   -3.9050   -1.8510   -1.3814 C   0  0  0  0  0  0  0  0  0  0  0  0
   -3.8521   -2.6443   -0.0944 C   0  0  0  0  0  0  0  0  0  0  0  0
    0.5674   -1.3890    1.7248 H   0  0  0  0  0  0  0  0  0  0  0  0
    0.5680   -3.1458    1.9222 H   0  0  0  0  0  0  0  0  0  0  0  0
    1.7707   -2.1584    2.7699 H   0  0  0  0  0  0  0  0  0  0  0  0
    1.5776   -2.4922   -0.2712 H   0  0  0  0  0  0  0  0  0  0  0  0
    2.7704   -3.2981    0.7806 H   0  0  0  0  0  0  0  0  0  0  0  0
    5.1714   -0.1073    1.4369 H   0  0  0  0  0  0  0  0  0  0  0  0
    5.7347    1.4774    0.8310 H   0  0  0  0  0  0  0  0  0  0  0  0
    4.5603    1.7401    3.0106 H   0  0  0  0  0  0  0  0  0  0  0  0
    3.6292    2.5225    1.7228 H   0  0  0  0  0  0  0  0  0  0  0  0
    3.1222    0.9490    2.3480 H   0  0  0  0  0  0  0  0  0  0  0  0
    0.5786    0.5852   -1.9274 H   0  0  0  0  0  0  0  0  0  0  0  0
   -0.5703    1.6966   -1.0904 H   0  0  0  0  0  0  0  0  0  0  0  0
   -3.1827    1.9517    2.0358 H   0  0  0  0  0  0  0  0  0  0  0  0
   -3.7227    0.6056    3.0812 H   0  0  0  0  0  0  0  0  0  0  0  0
   -1.3938   -0.3540    2.9554 H   0  0  0  0  0  0  0  0  0  0  0  0
   -0.8828    1.0637    2.0161 H   0  0  0  0  0  0  0  0  0  0  0  0
   -1.4148    1.2586    3.6870 H   0  0  0  0  0  0  0  0  0  0  0  0
   -4.8377   -2.0163   -1.9227 H   0  0  0  0  0  0  0  0  0  0  0  0
   -3.0557   -2.0950   -2.0250 H   0  0  0  0  0  0  0  0  0  0  0  0
   -4.6634   -2.3476    0.5649 H   0  0  0  0  0  0  0  0  0  0  0  0
   -3.9422   -3.7012   -0.3258 H   0  0  0  0  0  0  0  0  0  0  0  0
   -2.9034   -2.4713    0.4101 H   0  0  0  0  0  0  0  0  0  0  0  0
  1  2  1  0  0  0  0
  2  3  1  0  0  0  0
  3  4  2  0  0  0  0
  4  5  2  0  0  0  0
  4  6  2  0  0  0  0
  6  7  1  0  0  0  0
  7  8  1  0  0  0  0
  4  9  1  0  0  0  0
  9 10  1  0  0  0  0
 10 11  1  0  0  0  0
 11 12  1  0  0  0  0
 12 13  2  0  0  0  0
 12 14  2  0  0  0  0
 14 15  1  0  0  0  0
 15 16  1  0  0  0  0
 12 17  2  0  0  0  0
 17 18  1  0  0  0  0
 18 19  1  0  0  0  0
  1 20  1  0  0  0  0
  1 21  1  0  0  0  0
  1 22  1  0  0  0  0
  2 23  1  0  0  0  0
  2 24  1  0  0  0  0
  7 25  1  0  0  0  0
  7 26  1  0  0  0  0
  8 27  1  0  0  0  0
  8 28  1  0  0  0  0
  8 29  1  0  0  0  0
 10 30  1  0  0  0  0
 10 31  1  0  0  0  0
 15 32  1  0  0  0  0
 15 33  1  0  0  0  0
 16 34  1  0  0  0  0
 16 35  1  0  0  0  0
 16 36  1  0  0  0  0
 18 37  1  0  0  0  0
 18 38  1  0  0  0  0
 19 39  1  0  0  0  0
 19 40  1  0  0  0  0
 19 41  1  0  0  0  0
M  END
