41
 xtb: 6.7.1 (edcfbbe)
C            5.73464721972183       -1.31574092921679       -1.14423111770991
C            4.37804573163912       -1.00680590400131       -1.72224033298380
O            3.35341553548449       -1.32905493613483       -0.71510514796567
P            2.32061842123252       -0.21408360074558       -0.18612798879005
S            3.05025412505148        1.53711655409808        0.26030207491331
O            1.59347250422450       -1.01838141981093        0.99583009164720
C            2.26133815555992       -1.20502483992398        2.29597295207448
C            1.22694229212392       -1.73337626846368        3.25503668446876
S            0.85213247152193       -0.24785220082518       -1.70870156914718
C            0.00359564607040        1.35632263547004       -1.42060691647226
S           -0.98102195193526        1.50805214096638        0.11865684672385
P           -2.70675709476246        0.38050876751101       -0.41025434133018
S           -3.50966858537140        0.81944443723249       -2.12521412151583
O           -3.57869414998794        0.57703535093439        0.92569875286442
C           -4.63468860206196        1.59241817447677        1.06487334593088
C           -4.07024928474603        2.95656979420570        1.37091965098129
O           -2.31062866684034       -1.17001868011189       -0.34464680637042
C           -1.73781403941136       -1.78646744971852        0.86810162493248
C           -2.75796682976218       -2.70406454574348        1.49201776399509
H            5.94134090997912       -0.68331619822159       -0.27600151308597
H            5.80292293926853       -2.36584546337941       -0.84615007420261
H            6.49836297199823       -1.12243743065890       -1.90434019117704
H            4.14720547290498       -1.63035677371267       -2.58964858697684
H            4.29161035977168        0.04625390568567       -2.00667307775081
H            3.08613579466829       -1.90964657676147        2.15039105430165
H            2.66053054916796       -0.23977028972299        2.62250912447560
H            0.80636405246374       -2.67932219458876        2.90125530883756
H            1.70289143608145       -1.90828528702902        4.22494605010067
H            0.41791497249935       -1.01032766817666        3.39328566875052
H           -0.64405218154470        1.51390710572955       -2.28936695621188
H            0.75193596162678        2.15260454672994       -1.37711444366296
H           -5.23300382846957        1.59080159420566        0.14904621996446
H           -5.24200454413526        1.21383177601932        1.88924430511940
H           -3.42347169827477        2.92523253119975        2.25262702338635
H           -3.50571355908814        3.35920448269758        0.52526163989676
H           -4.90277940565318        3.63678025971224        1.57859590605532
H           -0.85854216641870       -2.33011134792037        0.51645112511843
H           -1.41443964836304       -1.00287629301749        1.55883735209158
H           -3.63498825045948       -2.14745439933404        1.83338156693667
H           -3.07514119273218       -3.47431574265822        0.78346024036517
H           -2.30269708935388       -3.19855684144363        2.35660815964922
