 xtb: 6.7.1 (edcfbbe)
          04032521043D

 22 24  0     0  0            999 V2000
    0.9476    1.6244   -1.7734 C   0  0  0  0  0  0  0  0  0  0  0  0
    2.0525    1.7661   -1.0579 C   0  0  0  0  0  0  0  0  0  0  0  0
    2.4281    0.5179   -0.3294 C   0  0  0  0  0  0  0  0  0  0  0  0
    2.6188    0.6633    0.7333 H   0  0  0  0  0  0  0  0  0  0  0  0
    1.2826   -0.4609   -0.6207 C   0  0  0  0  0  0  0  0  0  0  0  0
    1.6594   -1.4074   -1.0052 H   0  0  0  0  0  0  0  0  0  0  0  0
    0.3427    0.2629   -1.6210 C   0  0  0  0  0  0  0  0  0  0  0  0
    0.2336   -0.2541   -2.5744 H   0  0  0  0  0  0  0  0  0  0  0  0
   -1.0239    0.2634   -0.8751 C   0  0  0  0  0  0  0  0  0  0  0  0
   -0.8776    1.1946    0.3118 C   0  0  0  0  0  0  0  0  0  0  0  0
   -0.0523    0.5969    1.1817 C   0  0  0  0  0  0  0  0  0  0  0  0
    0.3481   -0.7376    0.5835 C   0  0  0  0  0  0  0  0  0  0  0  0
   -0.9673   -1.0977   -0.1464 C   0  0  0  0  0  0  0  0  0  0  0  0
   -2.3303   -1.3588    0.9606 Cl  0  0  0  0  0  0  0  0  0  0  0  0
   -0.8532   -2.4881   -1.2148 Cl  0  0  0  0  0  0  0  0  0  0  0  0
    0.9478   -1.9223    1.7328 Cl  0  0  0  0  0  0  0  0  0  0  0  0
    0.5350    1.1745    2.6604 Cl  0  0  0  0  0  0  0  0  0  0  0  0
   -1.5849    2.7254    0.3929 Cl  0  0  0  0  0  0  0  0  0  0  0  0
   -2.4305    0.5436   -1.8827 Cl  0  0  0  0  0  0  0  0  0  0  0  0
    3.9820   -0.1231   -0.9962 Cl  0  0  0  0  0  0  0  0  0  0  0  0
    0.4879    2.3705   -2.3937 H   0  0  0  0  0  0  0  0  0  0  0  0
    2.6734    2.6406   -1.0072 H   0  0  0  0  0  0  0  0  0  0  0  0
  1  2  2  0  0  0  0
  2  3  1  0  0  0  0
  3  4  1  0  0  0  0
  3  5  1  0  0  0  0
  5  6  1  0  0  0  0
  1  7  1  0  0  0  0
  5  7  1  0  0  0  0
  7  8  1  0  0  0  0
  7  9  1  0  0  0  0
  9 10  1  0  0  0  0
 10 11  2  0  0  0  0
  5 12  1  0  0  0  0
 11 12  1  0  0  0  0
  9 13  1  0  0  0  0
 12 13  1  0  0  0  0
 13 14  1  0  0  0  0
 13 15  1  0  0  0  0
 12 16  1  0  0  0  0
 11 17  1  0  0  0  0
 10 18  1  0  0  0  0
  9 19  1  0  0  0  0
  3 20  1  0  0  0  0
  1 21  1  0  0  0  0
  2 22  1  0  0  0  0
M  END
