 xtb: 6.7.1 (edcfbbe)
          04092513573D

 41 40  0     0  0            999 V2000
    3.4188   -2.0486    1.9805 C   0  0  0  0  0  0  0  0  0  0  0  0
    2.0446   -2.0147    1.3427 C   0  0  0  0  0  0  0  0  0  0  0  0
    1.6757   -0.6766    0.9567 O   0  0  0  0  0  0  0  0  0  0  0  0
    2.3235    0.0493   -0.3137 P   0  0  0  0  0  0  0  0  0  0  0  0
    2.9196   -1.1276   -1.7523 S   0  0  0  0  0  0  0  0  0  0  0  0
    3.5014    0.9602    0.2281 O   0  0  0  0  0  0  0  0  0  0  0  0
    3.3335    1.8579    1.3548 C   0  0  0  0  0  0  0  0  0  0  0  0
    4.6980    2.4048    1.7195 C   0  0  0  0  0  0  0  0  0  0  0  0
    0.7762    1.4321   -0.7576 S   0  0  0  0  0  0  0  0  0  0  0  0
   -0.1710    0.3396   -1.8505 C   0  0  0  0  0  0  0  0  0  0  0  0
   -0.9985   -1.0133   -0.9829 S   0  0  0  0  0  0  0  0  0  0  0  0
   -2.5884    0.1650   -0.1718 P   0  0  0  0  0  0  0  0  0  0  0  0
   -3.3977    1.4557   -1.3943 S   0  0  0  0  0  0  0  0  0  0  0  0
   -1.9834    0.8650    1.1038 O   0  0  0  0  0  0  0  0  0  0  0  0
   -1.4130    0.1232    2.2114 C   0  0  0  0  0  0  0  0  0  0  0  0
   -0.5338    1.0732    2.9965 C   0  0  0  0  0  0  0  0  0  0  0  0
   -3.5597   -0.9151    0.4757 O   0  0  0  0  0  0  0  0  0  0  0  0
   -4.6709   -1.5059   -0.2233 C   0  0  0  0  0  0  0  0  0  0  0  0
   -4.2283   -2.4553   -1.3173 C   0  0  0  0  0  0  0  0  0  0  0  0
    4.1703   -1.7403    1.2540 H   0  0  0  0  0  0  0  0  0  0  0  0
    3.4583   -1.3814    2.8378 H   0  0  0  0  0  0  0  0  0  0  0  0
    3.6382   -3.0607    2.3057 H   0  0  0  0  0  0  0  0  0  0  0  0
    1.2655   -2.3156    2.0446 H   0  0  0  0  0  0  0  0  0  0  0  0
    2.0120   -2.6553    0.4560 H   0  0  0  0  0  0  0  0  0  0  0  0
    2.6495    2.6560    1.0537 H   0  0  0  0  0  0  0  0  0  0  0  0
    2.8936    1.2965    2.1827 H   0  0  0  0  0  0  0  0  0  0  0  0
    5.3689    1.5942    1.9891 H   0  0  0  0  0  0  0  0  0  0  0  0
    5.1224    2.9428    0.8770 H   0  0  0  0  0  0  0  0  0  0  0  0
    4.5941    3.0814    2.5618 H   0  0  0  0  0  0  0  0  0  0  0  0
    0.5043   -0.1160   -2.5750 H   0  0  0  0  0  0  0  0  0  0  0  0
   -0.9194    0.9638   -2.3408 H   0  0  0  0  0  0  0  0  0  0  0  0
   -2.2365   -0.2636    2.8144 H   0  0  0  0  0  0  0  0  0  0  0  0
   -0.8366   -0.7140    1.8067 H   0  0  0  0  0  0  0  0  0  0  0  0
   -1.1221    1.9090    3.3632 H   0  0  0  0  0  0  0  0  0  0  0  0
   -0.0952    0.5425    3.8353 H   0  0  0  0  0  0  0  0  0  0  0  0
    0.2564    1.4581    2.3566 H   0  0  0  0  0  0  0  0  0  0  0  0
   -5.2204   -2.0273    0.5622 H   0  0  0  0  0  0  0  0  0  0  0  0
   -5.2860   -0.7009   -0.6367 H   0  0  0  0  0  0  0  0  0  0  0  0
   -3.7346   -1.9037   -2.1157 H   0  0  0  0  0  0  0  0  0  0  0  0
   -3.5375   -3.1958   -0.9226 H   0  0  0  0  0  0  0  0  0  0  0  0
   -5.1002   -2.9576   -1.7249 H   0  0  0  0  0  0  0  0  0  0  0  0
  1  2  1  0  0  0  0
  2  3  1  0  0  0  0
  3  4  1  0  0  0  0
  4  5  2  0  0  0  0
  4  6  2  0  0  0  0
  6  7  1  0  0  0  0
  7  8  1  0  0  0  0
  4  9  1  0  0  0  0
  9 10  1  0  0  0  0
 10 11  1  0  0  0  0
 11 12  1  0  0  0  0
 12 13  2  0  0  0  0
 12 14  2  0  0  0  0
 14 15  1  0  0  0  0
 15 16  1  0  0  0  0
 12 17  2  0  0  0  0
 17 18  1  0  0  0  0
 18 19  1  0  0  0  0
  1 20  1  0  0  0  0
  1 21  1  0  0  0  0
  1 22  1  0  0  0  0
  2 23  1  0  0  0  0
  2 24  1  0  0  0  0
  7 25  1  0  0  0  0
  7 26  1  0  0  0  0
  8 27  1  0  0  0  0
  8 28  1  0  0  0  0
  8 29  1  0  0  0  0
 10 30  1  0  0  0  0
 10 31  1  0  0  0  0
 15 32  1  0  0  0  0
 15 33  1  0  0  0  0
 16 34  1  0  0  0  0
 16 35  1  0  0  0  0
 16 36  1  0  0  0  0
 18 37  1  0  0  0  0
 18 38  1  0  0  0  0
 19 39  1  0  0  0  0
 19 40  1  0  0  0  0
 19 41  1  0  0  0  0
M  END
