38
 xtb: 6.7.1 (edcfbbe)
C            5.59759372515979       -1.44654267899656       -0.20533596738033
C            4.80969403156624       -1.85087439657646       -1.42851109206531
O            3.42362291273820       -2.17521239948283       -1.06876821542191
C            2.57488582731006       -1.14909987861661       -0.94385442001166
O            2.86429788561904        0.01832732882610       -1.14372275289434
C            1.20761037552567       -1.62390902002756       -0.52152571157811
C            0.23242191219146       -0.45481286142220       -0.44027063658113
H            0.01911017837001       -0.05050217616531       -1.43304897826811
C            0.70290442642203        0.68837454510056        0.44088595852676
O            0.51476167829312        1.86008835696991        0.16840491708579
O            1.28865500832951        0.24602829160886        1.55634870408379
C            1.78146120172038        1.26066256369500        2.49359638768846
C            3.13847427909250        1.76446767253137        2.06188795178190
S           -1.35772123244507       -1.10648843138791        0.26684170068909
P           -2.71796220413599        0.44360138875809       -0.25784487121746
S           -2.67187310421154        1.04580795300776       -2.10089328218371
O           -4.07654844155277       -0.21838415844116        0.29946726570627
C           -4.78987491726338       -1.21583795590822       -0.48798130287243
O           -2.51111139277009        1.66276344711434        0.76126541350547
C           -2.42217875310167        1.46717098876448        2.20418182843969
H            5.57392585176737       -2.23710173041030        0.55014679094632
H            6.63994755230919       -1.27995247192152       -0.49520142439190
H            5.21129967076731       -0.52210883596474        0.23294915443033
H            5.18711009217262       -2.77755340662280       -1.86367931881695
H            4.79744735259522       -1.07028413787009       -2.19272946921324
H            1.31162350936172       -2.14038051727452        0.43870968579748
H            0.85255152532609       -2.36230493745321       -1.24731687233838
H            1.03961079383193        2.06078536902161        2.56131311373566
H            1.83151835007642        0.73043902765311        3.44595724813860
H            3.08498199384264        2.29300178930516        1.10640473402843
H            3.51484845204067        2.45948959545386        2.81901148207180
H            3.84759824249710        0.93609290575137        1.97273691860645
H           -5.64829761771167       -1.50487090253048        0.11814370798079
H           -4.15377653449124       -2.08553828610934       -0.67441745370007
H           -5.12120425742169       -0.77558753020943       -1.43145077987800
H           -1.62393841057539        0.75930478741179        2.44471029325985
H           -3.37903672798390        1.11151589738034        2.59364214938660
H           -2.18708788955260        2.44951867759048        2.61400868439434
