 xtb: 6.7.1 (edcfbbe)
          04092505203D

 41 40  0     0  0            999 V2000
    2.9837    1.3360    3.0224 C   0  0  0  0  0  0  0  0  0  0  0  0
    1.6130    0.8297    2.6265 C   0  0  0  0  0  0  0  0  0  0  0  0
    1.4491    0.7914    1.1919 O   0  0  0  0  0  0  0  0  0  0  0  0
    2.2600   -0.2271    0.2879 P   0  0  0  0  0  0  0  0  0  0  0  0
    2.7066   -1.9511    1.1144 S   0  0  0  0  0  0  0  0  0  0  0  0
    3.5015    0.6577   -0.1578 O   0  0  0  0  0  0  0  0  0  0  0  0
    4.6889    0.0870   -0.7341 C   0  0  0  0  0  0  0  0  0  0  0  0
    4.4404   -0.4658   -2.1227 C   0  0  0  0  0  0  0  0  0  0  0  0
    1.0084   -0.2784   -1.4162 S   0  0  0  0  0  0  0  0  0  0  0  0
   -0.0743   -1.6035   -0.8132 C   0  0  0  0  0  0  0  0  0  0  0  0
   -1.1278   -1.0891    0.5593 S   0  0  0  0  0  0  0  0  0  0  0  0
   -2.3516    0.2379   -0.5898 P   0  0  0  0  0  0  0  0  0  0  0  0
   -2.7237   -0.3318   -2.4220 S   0  0  0  0  0  0  0  0  0  0  0  0
   -1.6269    1.6372   -0.6118 O   0  0  0  0  0  0  0  0  0  0  0  0
   -1.3183    2.4012    0.5776 C   0  0  0  0  0  0  0  0  0  0  0  0
   -2.3071    3.5369    0.7411 C   0  0  0  0  0  0  0  0  0  0  0  0
   -3.5705    0.5170    0.3899 O   0  0  0  0  0  0  0  0  0  0  0  0
   -4.3505   -0.4944    1.0563 C   0  0  0  0  0  0  0  0  0  0  0  0
   -4.9373   -1.5091    0.0983 C   0  0  0  0  0  0  0  0  0  0  0  0
    3.1818    2.2946    2.5501 H   0  0  0  0  0  0  0  0  0  0  0  0
    3.0288    1.4463    4.1013 H   0  0  0  0  0  0  0  0  0  0  0  0
    3.7462    0.6244    2.7079 H   0  0  0  0  0  0  0  0  0  0  0  0
    0.8215    1.4997    2.9642 H   0  0  0  0  0  0  0  0  0  0  0  0
    1.4414   -0.1774    3.0199 H   0  0  0  0  0  0  0  0  0  0  0  0
    5.3969    0.9166   -0.7515 H   0  0  0  0  0  0  0  0  0  0  0  0
    5.0526   -0.7013   -0.0671 H   0  0  0  0  0  0  0  0  0  0  0  0
    3.7769   -1.3281   -2.0685 H   0  0  0  0  0  0  0  0  0  0  0  0
    3.9780    0.2894   -2.7537 H   0  0  0  0  0  0  0  0  0  0  0  0
    5.3836   -0.7747   -2.5617 H   0  0  0  0  0  0  0  0  0  0  0  0
    0.5316   -2.4342   -0.4513 H   0  0  0  0  0  0  0  0  0  0  0  0
   -0.7003   -1.8982   -1.6561 H   0  0  0  0  0  0  0  0  0  0  0  0
   -1.3334    1.7327    1.4430 H   0  0  0  0  0  0  0  0  0  0  0  0
   -0.3026    2.7693    0.4178 H   0  0  0  0  0  0  0  0  0  0  0  0
   -3.3101    3.1419    0.8803 H   0  0  0  0  0  0  0  0  0  0  0  0
   -2.0296    4.1318    1.6056 H   0  0  0  0  0  0  0  0  0  0  0  0
   -2.2992    4.1646   -0.1457 H   0  0  0  0  0  0  0  0  0  0  0  0
   -3.7117   -0.9853    1.7958 H   0  0  0  0  0  0  0  0  0  0  0  0
   -5.1325    0.0763    1.5604 H   0  0  0  0  0  0  0  0  0  0  0  0
   -5.5863   -2.1866    0.6438 H   0  0  0  0  0  0  0  0  0  0  0  0
   -5.5090   -1.0098   -0.6804 H   0  0  0  0  0  0  0  0  0  0  0  0
   -4.1424   -2.0832   -0.3756 H   0  0  0  0  0  0  0  0  0  0  0  0
  1  2  1  0  0  0  0
  2  3  1  0  0  0  0
  3  4  2  0  0  0  0
  4  5  2  0  0  0  0
  4  6  2  0  0  0  0
  6  7  1  0  0  0  0
  7  8  1  0  0  0  0
  4  9  1  0  0  0  0
  9 10  1  0  0  0  0
 10 11  1  0  0  0  0
 11 12  1  0  0  0  0
 12 13  2  0  0  0  0
 12 14  2  0  0  0  0
 14 15  1  0  0  0  0
 15 16  1  0  0  0  0
 12 17  2  0  0  0  0
 17 18  1  0  0  0  0
 18 19  1  0  0  0  0
  1 20  1  0  0  0  0
  1 21  1  0  0  0  0
  1 22  1  0  0  0  0
  2 23  1  0  0  0  0
  2 24  1  0  0  0  0
  7 25  1  0  0  0  0
  7 26  1  0  0  0  0
  8 27  1  0  0  0  0
  8 28  1  0  0  0  0
  8 29  1  0  0  0  0
 10 30  1  0  0  0  0
 10 31  1  0  0  0  0
 15 32  1  0  0  0  0
 15 33  1  0  0  0  0
 16 34  1  0  0  0  0
 16 35  1  0  0  0  0
 16 36  1  0  0  0  0
 18 37  1  0  0  0  0
 18 38  1  0  0  0  0
 19 39  1  0  0  0  0
 19 40  1  0  0  0  0
 19 41  1  0  0  0  0
M  END
