 xtb: 6.7.1 (edcfbbe)
          04092507313D

 38 37  0     0  0            999 V2000
    3.6449   -2.2100    1.6059 C   0  0  0  0  0  0  0  0  0  0  0  0
    2.9077   -2.8194    0.4246 C   0  0  0  0  0  0  0  0  0  0  0  0
    2.7955   -1.8630   -0.6493 O   0  0  0  0  0  0  0  0  0  0  0  0
    1.7802   -1.0386   -0.6550 C   0  0  0  0  0  0  0  0  0  0  0  0
    0.8945   -1.0437    0.1865 O   0  0  0  0  0  0  0  0  0  0  0  0
    1.8020   -0.0862   -1.8207 C   0  0  0  0  0  0  0  0  0  0  0  0
    0.6993    0.9488   -1.6801 C   0  0  0  0  0  0  0  0  0  0  0  0
    0.6817    1.6245   -2.5388 H   0  0  0  0  0  0  0  0  0  0  0  0
    0.8191    1.7786   -0.4116 C   0  0  0  0  0  0  0  0  0  0  0  0
    1.7190    1.6456    0.3883 O   0  0  0  0  0  0  0  0  0  0  0  0
   -0.1514    2.6599   -0.3294 O   0  0  0  0  0  0  0  0  0  0  0  0
   -0.1791    3.5550    0.7980 C   0  0  0  0  0  0  0  0  0  0  0  0
    0.6467    4.7998    0.5167 C   0  0  0  0  0  0  0  0  0  0  0  0
   -0.9741    0.1971   -1.7547 S   0  0  0  0  0  0  0  0  0  0  0  0
   -1.4790   -0.5581    0.1759 P   0  0  0  0  0  0  0  0  0  0  0  0
   -1.5269   -2.4945    0.5306 S   0  0  0  0  0  0  0  0  0  0  0  0
   -0.9696    0.4379    1.3083 O   0  0  0  0  0  0  0  0  0  0  0  0
   -0.2405    0.0221    2.4633 C   0  0  0  0  0  0  0  0  0  0  0  0
   -2.9930    0.0028    0.2075 O   0  0  0  0  0  0  0  0  0  0  0  0
   -3.9977   -0.5280   -0.6548 C   0  0  0  0  0  0  0  0  0  0  0  0
    4.6340   -1.8808    1.3004 H   0  0  0  0  0  0  0  0  0  0  0  0
    3.0923   -1.3552    1.9909 H   0  0  0  0  0  0  0  0  0  0  0  0
    3.7382   -2.9514    2.3924 H   0  0  0  0  0  0  0  0  0  0  0  0
    1.9035   -3.1449    0.7124 H   0  0  0  0  0  0  0  0  0  0  0  0
    3.4645   -3.6497   -0.0090 H   0  0  0  0  0  0  0  0  0  0  0  0
    1.6682   -0.6547   -2.7426 H   0  0  0  0  0  0  0  0  0  0  0  0
    2.7804    0.3967   -1.8486 H   0  0  0  0  0  0  0  0  0  0  0  0
   -1.2352    3.7921    0.9286 H   0  0  0  0  0  0  0  0  0  0  0  0
    0.1981    3.0233    1.6756 H   0  0  0  0  0  0  0  0  0  0  0  0
    1.6945    4.5349    0.3951 H   0  0  0  0  0  0  0  0  0  0  0  0
    0.2941    5.2853   -0.3889 H   0  0  0  0  0  0  0  0  0  0  0  0
    0.5513    5.4859    1.3516 H   0  0  0  0  0  0  0  0  0  0  0  0
    0.7909    0.3633    2.3649 H   0  0  0  0  0  0  0  0  0  0  0  0
   -0.2617   -1.0649    2.5581 H   0  0  0  0  0  0  0  0  0  0  0  0
   -0.7237    0.4868    3.3203 H   0  0  0  0  0  0  0  0  0  0  0  0
   -4.0148   -1.6177   -0.5833 H   0  0  0  0  0  0  0  0  0  0  0  0
   -3.8057   -0.2290   -1.6865 H   0  0  0  0  0  0  0  0  0  0  0  0
   -4.9375   -0.1097   -0.3034 H   0  0  0  0  0  0  0  0  0  0  0  0
  1  2  1  0  0  0  0
  2  3  1  0  0  0  0
  3  4  4  0  0  0  0
  4  5  2  0  0  0  0
  4  6  1  0  0  0  0
  6  7  1  0  0  0  0
  7  8  1  0  0  0  0
  7  9  1  0  0  0  0
  9 10  2  0  0  0  0
  9 11  1  0  0  0  0
 11 12  1  0  0  0  0
 12 13  1  0  0  0  0
  7 14  1  0  0  0  0
 14 15  1  0  0  0  0
 15 16  2  0  0  0  0
 15 17  1  0  0  0  0
 17 18  1  0  0  0  0
 15 19  1  0  0  0  0
 19 20  1  0  0  0  0
  1 21  1  0  0  0  0
  1 22  1  0  0  0  0
  1 23  1  0  0  0  0
  2 24  1  0  0  0  0
  2 25  1  0  0  0  0
  6 26  1  0  0  0  0
  6 27  1  0  0  0  0
 12 28  1  0  0  0  0
 12 29  1  0  0  0  0
 13 30  1  0  0  0  0
 13 31  1  0  0  0  0
 13 32  1  0  0  0  0
 18 33  1  0  0  0  0
 18 34  1  0  0  0  0
 18 35  1  0  0  0  0
 20 36  1  0  0  0  0
 20 37  1  0  0  0  0
 20 38  1  0  0  0  0
M  END
