 xtb: 6.7.1 (edcfbbe)
          04032519403D

 15 14  0     0  0            999 V2000
    0.7549   -1.2568   -0.4720 C   0  0  0  0  0  0  0  0  0  0  0  0
    0.0036    0.0002   -0.0180 C   0  0  0  0  0  0  0  0  0  0  0  0
   -1.4149    0.0052   -0.5907 C   0  0  0  0  0  0  0  0  0  0  0  0
    0.7610    1.2562   -0.4644 C   0  0  0  0  0  0  0  0  0  0  0  0
   -0.1473   -0.0039    1.4007 O   0  0  0  0  0  0  0  0  0  0  0  0
    0.2429   -2.1447   -0.1089 H   0  0  0  0  0  0  0  0  0  0  0  0
    0.7986   -1.2950   -1.5562 H   0  0  0  0  0  0  0  0  0  0  0  0
    1.7710   -1.2571   -0.0828 H   0  0  0  0  0  0  0  0  0  0  0  0
   -1.9514   -0.8750   -0.2466 H   0  0  0  0  0  0  0  0  0  0  0  0
   -1.3854    0.0070   -1.6755 H   0  0  0  0  0  0  0  0  0  0  0  0
   -1.9467    0.8870   -0.2435 H   0  0  0  0  0  0  0  0  0  0  0  0
    0.8005    1.3030   -1.5485 H   0  0  0  0  0  0  0  0  0  0  0  0
    0.2559    2.1441   -0.0917 H   0  0  0  0  0  0  0  0  0  0  0  0
    1.7788    1.2471   -0.0799 H   0  0  0  0  0  0  0  0  0  0  0  0
    0.7279   -0.0113    1.8106 H   0  0  0  0  0  0  0  0  0  0  0  0
  1  2  1  0  0  0  0
  2  3  1  0  0  0  0
  2  4  1  0  0  0  0
  2  5  1  0  0  0  0
  1  6  1  0  0  0  0
  1  7  1  0  0  0  0
  1  8  1  0  0  0  0
  3  9  1  0  0  0  0
  3 10  1  0  0  0  0
  3 11  1  0  0  0  0
  4 12  1  0  0  0  0
  4 13  1  0  0  0  0
  4 14  1  0  0  0  0
  5 15  1  0  0  0  0
M  END
