 xtb: 6.7.1 (edcfbbe)
          04092505213D

 41 40  0     0  0            999 V2000
    5.0718    1.1070    0.0130 C   0  0  0  0  0  0  0  0  0  0  0  0
    3.7497    1.4175   -0.6561 C   0  0  0  0  0  0  0  0  0  0  0  0
    2.9628    0.2246   -0.8571 O   0  0  0  0  0  0  0  0  0  0  0  0
    2.2978   -0.5457    0.3546 P   0  0  0  0  0  0  0  0  0  0  0  0
    1.8145    0.5391    1.9199 S   0  0  0  0  0  0  0  0  0  0  0  0
    3.3747   -1.6699    0.6781 O   0  0  0  0  0  0  0  0  0  0  0  0
    3.3232   -2.4516    1.8824 C   0  0  0  0  0  0  0  0  0  0  0  0
    2.1347   -3.3911    1.8890 C   0  0  0  0  0  0  0  0  0  0  0  0
    0.7845   -1.5977   -0.6975 S   0  0  0  0  0  0  0  0  0  0  0  0
    0.2109   -0.2849   -1.8150 C   0  0  0  0  0  0  0  0  0  0  0  0
   -0.3124    1.2303   -0.9637 S   0  0  0  0  0  0  0  0  0  0  0  0
   -2.3417    0.7302   -0.5961 P   0  0  0  0  0  0  0  0  0  0  0  0
   -2.9807   -0.9983   -1.2761 S   0  0  0  0  0  0  0  0  0  0  0  0
   -3.0335    1.9824   -1.2751 O   0  0  0  0  0  0  0  0  0  0  0  0
   -4.4017    1.9517   -1.7274 C   0  0  0  0  0  0  0  0  0  0  0  0
   -5.3704    1.9332   -0.5638 C   0  0  0  0  0  0  0  0  0  0  0  0
   -2.5882    1.0638    0.9386 O   0  0  0  0  0  0  0  0  0  0  0  0
   -1.8993    0.4985    2.0655 C   0  0  0  0  0  0  0  0  0  0  0  0
   -1.9470   -1.0153    2.0948 C   0  0  0  0  0  0  0  0  0  0  0  0
    5.6732    2.0094    0.0586 H   0  0  0  0  0  0  0  0  0  0  0  0
    4.8973    0.7461    1.0258 H   0  0  0  0  0  0  0  0  0  0  0  0
    5.6048    0.3421   -0.5455 H   0  0  0  0  0  0  0  0  0  0  0  0
    3.8865    1.8150   -1.6625 H   0  0  0  0  0  0  0  0  0  0  0  0
    3.1644    2.1217   -0.0558 H   0  0  0  0  0  0  0  0  0  0  0  0
    4.2694   -2.9941    1.8874 H   0  0  0  0  0  0  0  0  0  0  0  0
    3.2785   -1.7686    2.7375 H   0  0  0  0  0  0  0  0  0  0  0  0
    2.1449   -4.0225    1.0044 H   0  0  0  0  0  0  0  0  0  0  0  0
    2.1665   -4.0121    2.7784 H   0  0  0  0  0  0  0  0  0  0  0  0
    1.2096   -2.8142    1.8918 H   0  0  0  0  0  0  0  0  0  0  0  0
   -0.6362   -0.7135   -2.3527 H   0  0  0  0  0  0  0  0  0  0  0  0
    1.0164   -0.0100   -2.4895 H   0  0  0  0  0  0  0  0  0  0  0  0
   -4.5008    2.8575   -2.3266 H   0  0  0  0  0  0  0  0  0  0  0  0
   -4.5398    1.0682   -2.3592 H   0  0  0  0  0  0  0  0  0  0  0  0
   -5.1806    2.7753    0.0964 H   0  0  0  0  0  0  0  0  0  0  0  0
   -6.3878    1.9856   -0.9382 H   0  0  0  0  0  0  0  0  0  0  0  0
   -5.2454    1.0104    0.0015 H   0  0  0  0  0  0  0  0  0  0  0  0
   -0.8635    0.8523    2.0565 H   0  0  0  0  0  0  0  0  0  0  0  0
   -2.4185    0.9280    2.9241 H   0  0  0  0  0  0  0  0  0  0  0  0
   -2.9747   -1.3671    2.0479 H   0  0  0  0  0  0  0  0  0  0  0  0
   -1.4010   -1.4317    1.2485 H   0  0  0  0  0  0  0  0  0  0  0  0
   -1.4867   -1.3645    3.0140 H   0  0  0  0  0  0  0  0  0  0  0  0
  1  2  1  0  0  0  0
  2  3  1  0  0  0  0
  3  4  2  0  0  0  0
  4  5  2  0  0  0  0
  4  6  2  0  0  0  0
  6  7  1  0  0  0  0
  7  8  1  0  0  0  0
  4  9  1  0  0  0  0
  9 10  1  0  0  0  0
 10 11  1  0  0  0  0
 11 12  1  0  0  0  0
 12 13  2  0  0  0  0
 12 14  2  0  0  0  0
 14 15  1  0  0  0  0
 15 16  1  0  0  0  0
 12 17  2  0  0  0  0
 17 18  1  0  0  0  0
 18 19  1  0  0  0  0
  1 20  1  0  0  0  0
  1 21  1  0  0  0  0
  1 22  1  0  0  0  0
  2 23  1  0  0  0  0
  2 24  1  0  0  0  0
  7 25  1  0  0  0  0
  7 26  1  0  0  0  0
  8 27  1  0  0  0  0
  8 28  1  0  0  0  0
  8 29  1  0  0  0  0
 10 30  1  0  0  0  0
 10 31  1  0  0  0  0
 15 32  1  0  0  0  0
 15 33  1  0  0  0  0
 16 34  1  0  0  0  0
 16 35  1  0  0  0  0
 16 36  1  0  0  0  0
 18 37  1  0  0  0  0
 18 38  1  0  0  0  0
 19 39  1  0  0  0  0
 19 40  1  0  0  0  0
 19 41  1  0  0  0  0
M  END
