 xtb: 6.7.1 (edcfbbe)
          04092514033D

 41 40  0     0  0            999 V2000
    4.7887   -1.7653   -0.8266 C   0  0  0  0  0  0  0  0  0  0  0  0
    4.8035   -0.3583   -0.2641 C   0  0  0  0  0  0  0  0  0  0  0  0
    3.6057   -0.0427    0.4693 O   0  0  0  0  0  0  0  0  0  0  0  0
    2.1992    0.2437   -0.2153 P   0  0  0  0  0  0  0  0  0  0  0  0
    2.2773    1.1196   -1.9708 S   0  0  0  0  0  0  0  0  0  0  0  0
    1.4359    1.0334    0.9306 O   0  0  0  0  0  0  0  0  0  0  0  0
    1.4628    2.4706    1.0175 C   0  0  0  0  0  0  0  0  0  0  0  0
    2.8211    2.9960    1.4324 C   0  0  0  0  0  0  0  0  0  0  0  0
    1.2219   -1.6128   -0.0895 S   0  0  0  0  0  0  0  0  0  0  0  0
   -0.0973   -1.3880   -1.3437 C   0  0  0  0  0  0  0  0  0  0  0  0
   -1.7462   -1.7479   -0.7051 S   0  0  0  0  0  0  0  0  0  0  0  0
   -2.1860    0.1313    0.1889 P   0  0  0  0  0  0  0  0  0  0  0  0
   -1.6002    1.6993   -0.8300 S   0  0  0  0  0  0  0  0  0  0  0  0
   -1.5415    0.1267    1.6274 O   0  0  0  0  0  0  0  0  0  0  0  0
   -1.4406   -0.9982    2.5343 C   0  0  0  0  0  0  0  0  0  0  0  0
   -2.7872   -1.5605    2.9348 C   0  0  0  0  0  0  0  0  0  0  0  0
   -3.7429    0.0642    0.4973 O   0  0  0  0  0  0  0  0  0  0  0  0
   -4.7716    0.4300   -0.4405 C   0  0  0  0  0  0  0  0  0  0  0  0
   -5.2126   -0.7420   -1.2960 C   0  0  0  0  0  0  0  0  0  0  0  0
    4.5880   -2.4883   -0.0405 H   0  0  0  0  0  0  0  0  0  0  0  0
    4.0213   -1.8552   -1.5937 H   0  0  0  0  0  0  0  0  0  0  0  0
    5.7564   -1.9773   -1.2714 H   0  0  0  0  0  0  0  0  0  0  0  0
    4.9200    0.3747   -1.0689 H   0  0  0  0  0  0  0  0  0  0  0  0
    5.5994   -0.2320    0.4718 H   0  0  0  0  0  0  0  0  0  0  0  0
    1.1640    2.8807    0.0463 H   0  0  0  0  0  0  0  0  0  0  0  0
    0.6924    2.7017    1.7550 H   0  0  0  0  0  0  0  0  0  0  0  0
    3.5551    2.7900    0.6543 H   0  0  0  0  0  0  0  0  0  0  0  0
    2.7562    4.0701    1.5780 H   0  0  0  0  0  0  0  0  0  0  0  0
    3.1426    2.5231    2.3567 H   0  0  0  0  0  0  0  0  0  0  0  0
    0.0792   -2.1021   -2.1439 H   0  0  0  0  0  0  0  0  0  0  0  0
   -0.0616   -0.3610   -1.7172 H   0  0  0  0  0  0  0  0  0  0  0  0
   -0.8212   -1.7660    2.0614 H   0  0  0  0  0  0  0  0  0  0  0  0
   -0.9089   -0.5769    3.3890 H   0  0  0  0  0  0  0  0  0  0  0  0
   -2.6336   -2.3237    3.6920 H   0  0  0  0  0  0  0  0  0  0  0  0
   -3.4212   -0.7760    3.3394 H   0  0  0  0  0  0  0  0  0  0  0  0
   -3.2825   -2.0077    2.0760 H   0  0  0  0  0  0  0  0  0  0  0  0
   -5.5903    0.7832    0.1897 H   0  0  0  0  0  0  0  0  0  0  0  0
   -4.4058    1.2554   -1.0600 H   0  0  0  0  0  0  0  0  0  0  0  0
   -4.4041   -1.0731   -1.9436 H   0  0  0  0  0  0  0  0  0  0  0  0
   -5.5232   -1.5728   -0.6688 H   0  0  0  0  0  0  0  0  0  0  0  0
   -6.0513   -0.4285   -1.9106 H   0  0  0  0  0  0  0  0  0  0  0  0
  1  2  1  0  0  0  0
  2  3  1  0  0  0  0
  3  4  2  0  0  0  0
  4  5  2  0  0  0  0
  4  6  2  0  0  0  0
  6  7  1  0  0  0  0
  7  8  1  0  0  0  0
  4  9  1  0  0  0  0
  9 10  1  0  0  0  0
 10 11  1  0  0  0  0
 11 12  1  0  0  0  0
 12 13  2  0  0  0  0
 12 14  2  0  0  0  0
 14 15  1  0  0  0  0
 15 16  1  0  0  0  0
 12 17  2  0  0  0  0
 17 18  1  0  0  0  0
 18 19  1  0  0  0  0
  1 20  1  0  0  0  0
  1 21  1  0  0  0  0
  1 22  1  0  0  0  0
  2 23  1  0  0  0  0
  2 24  1  0  0  0  0
  7 25  1  0  0  0  0
  7 26  1  0  0  0  0
  8 27  1  0  0  0  0
  8 28  1  0  0  0  0
  8 29  1  0  0  0  0
 10 30  1  0  0  0  0
 10 31  1  0  0  0  0
 15 32  1  0  0  0  0
 15 33  1  0  0  0  0
 16 34  1  0  0  0  0
 16 35  1  0  0  0  0
 16 36  1  0  0  0  0
 18 37  1  0  0  0  0
 18 38  1  0  0  0  0
 19 39  1  0  0  0  0
 19 40  1  0  0  0  0
 19 41  1  0  0  0  0
M  END
