 xtb: 6.7.1 (edcfbbe)
          04092505203D

 41 40  0     0  0            999 V2000
    5.5635   -0.9198   -1.4154 C   0  0  0  0  0  0  0  0  0  0  0  0
    4.1590   -1.1088   -1.9555 C   0  0  0  0  0  0  0  0  0  0  0  0
    3.2522   -1.4896   -0.9003 O   0  0  0  0  0  0  0  0  0  0  0  0
    2.3529   -0.4303   -0.1274 P   0  0  0  0  0  0  0  0  0  0  0  0
    3.2898    1.1201    0.6302 S   0  0  0  0  0  0  0  0  0  0  0  0
    1.6164   -1.3757    0.9035 O   0  0  0  0  0  0  0  0  0  0  0  0
    2.0636   -1.5329    2.2742 C   0  0  0  0  0  0  0  0  0  0  0  0
    1.1978   -0.7155    3.2108 C   0  0  0  0  0  0  0  0  0  0  0  0
    0.8224   -0.0014   -1.5223 S   0  0  0  0  0  0  0  0  0  0  0  0
    0.1740    1.4623   -0.6655 C   0  0  0  0  0  0  0  0  0  0  0  0
   -0.8565    1.0367    0.7531 S   0  0  0  0  0  0  0  0  0  0  0  0
   -2.5086    0.2885   -0.3739 P   0  0  0  0  0  0  0  0  0  0  0  0
   -2.8235    1.1495   -2.1029 S   0  0  0  0  0  0  0  0  0  0  0  0
   -3.7377    0.3466    0.6318 O   0  0  0  0  0  0  0  0  0  0  0  0
   -4.5796    1.5057    0.7568 C   0  0  0  0  0  0  0  0  0  0  0  0
   -3.8498    2.6847    1.3677 C   0  0  0  0  0  0  0  0  0  0  0  0
   -2.2699   -1.2598   -0.5502 O   0  0  0  0  0  0  0  0  0  0  0  0
   -1.7279   -2.1860    0.4214 C   0  0  0  0  0  0  0  0  0  0  0  0
   -2.4466   -2.1350    1.7521 C   0  0  0  0  0  0  0  0  0  0  0  0
    5.5866   -0.0967   -0.7046 H   0  0  0  0  0  0  0  0  0  0  0  0
    5.8956   -1.8254   -0.9158 H   0  0  0  0  0  0  0  0  0  0  0  0
    6.2351   -0.6953   -2.2378 H   0  0  0  0  0  0  0  0  0  0  0  0
    4.1141   -1.9335   -2.6693 H   0  0  0  0  0  0  0  0  0  0  0  0
    3.7953   -0.1949   -2.4339 H   0  0  0  0  0  0  0  0  0  0  0  0
    1.9775   -2.6020    2.4725 H   0  0  0  0  0  0  0  0  0  0  0  0
    3.1105   -1.2269    2.3462 H   0  0  0  0  0  0  0  0  0  0  0  0
    0.1549   -0.9997    3.1081 H   0  0  0  0  0  0  0  0  0  0  0  0
    1.5201   -0.8876    4.2326 H   0  0  0  0  0  0  0  0  0  0  0  0
    1.2931    0.3437    2.9811 H   0  0  0  0  0  0  0  0  0  0  0  0
   -0.4232    2.0094   -1.3956 H   0  0  0  0  0  0  0  0  0  0  0  0
    1.0060    2.0623   -0.2944 H   0  0  0  0  0  0  0  0  0  0  0  0
   -4.9631    1.7633   -0.2354 H   0  0  0  0  0  0  0  0  0  0  0  0
   -5.3970    1.1645    1.3935 H   0  0  0  0  0  0  0  0  0  0  0  0
   -4.5599    3.4815    1.5644 H   0  0  0  0  0  0  0  0  0  0  0  0
   -3.3676    2.3932    2.2972 H   0  0  0  0  0  0  0  0  0  0  0  0
   -3.0920    3.0528    0.6780 H   0  0  0  0  0  0  0  0  0  0  0  0
   -1.8497   -3.1543   -0.0668 H   0  0  0  0  0  0  0  0  0  0  0  0
   -0.6621   -1.9712    0.5400 H   0  0  0  0  0  0  0  0  0  0  0  0
   -2.0488   -2.9112    2.3990 H   0  0  0  0  0  0  0  0  0  0  0  0
   -2.3002   -1.1647    2.2234 H   0  0  0  0  0  0  0  0  0  0  0  0
   -3.5121   -2.2962    1.6101 H   0  0  0  0  0  0  0  0  0  0  0  0
  1  2  1  0  0  0  0
  2  3  1  0  0  0  0
  3  4  2  0  0  0  0
  4  5  2  0  0  0  0
  4  6  2  0  0  0  0
  6  7  1  0  0  0  0
  7  8  1  0  0  0  0
  4  9  1  0  0  0  0
  9 10  1  0  0  0  0
 10 11  1  0  0  0  0
 11 12  1  0  0  0  0
 12 13  2  0  0  0  0
 12 14  2  0  0  0  0
 14 15  1  0  0  0  0
 15 16  1  0  0  0  0
 12 17  2  0  0  0  0
 17 18  1  0  0  0  0
 18 19  1  0  0  0  0
  1 20  1  0  0  0  0
  1 21  1  0  0  0  0
  1 22  1  0  0  0  0
  2 23  1  0  0  0  0
  2 24  1  0  0  0  0
  7 25  1  0  0  0  0
  7 26  1  0  0  0  0
  8 27  1  0  0  0  0
  8 28  1  0  0  0  0
  8 29  1  0  0  0  0
 10 30  1  0  0  0  0
 10 31  1  0  0  0  0
 15 32  1  0  0  0  0
 15 33  1  0  0  0  0
 16 34  1  0  0  0  0
 16 35  1  0  0  0  0
 16 36  1  0  0  0  0
 18 37  1  0  0  0  0
 18 38  1  0  0  0  0
 19 39  1  0  0  0  0
 19 40  1  0  0  0  0
 19 41  1  0  0  0  0
M  END
