 xtb: 6.7.1 (edcfbbe)
          04092505213D

 41 40  0     0  0            999 V2000
    2.8070   -0.9008    3.1549 C   0  0  0  0  0  0  0  0  0  0  0  0
    2.0669    0.3404    2.7046 C   0  0  0  0  0  0  0  0  0  0  0  0
    1.4114    0.1567    1.4264 O   0  0  0  0  0  0  0  0  0  0  0  0
    2.1681   -0.2088    0.0872 P   0  0  0  0  0  0  0  0  0  0  0  0
    2.6670   -2.0848   -0.2249 S   0  0  0  0  0  0  0  0  0  0  0  0
    3.3817    0.8138    0.1070 O   0  0  0  0  0  0  0  0  0  0  0  0
    4.4760    0.7271   -0.8274 C   0  0  0  0  0  0  0  0  0  0  0  0
    5.7129    1.2935   -0.1590 C   0  0  0  0  0  0  0  0  0  0  0  0
    0.8358    0.5833   -1.3623 S   0  0  0  0  0  0  0  0  0  0  0  0
   -0.1508   -0.9211   -1.5674 C   0  0  0  0  0  0  0  0  0  0  0  0
   -1.1702   -1.2857   -0.1209 S   0  0  0  0  0  0  0  0  0  0  0  0
   -2.5618    0.3071   -0.4334 P   0  0  0  0  0  0  0  0  0  0  0  0
   -3.0306    0.6772   -2.2930 S   0  0  0  0  0  0  0  0  0  0  0  0
   -1.9369    1.5675    0.2771 O   0  0  0  0  0  0  0  0  0  0  0  0
   -1.6267    1.6114    1.6929 C   0  0  0  0  0  0  0  0  0  0  0  0
   -0.7249    2.8063    1.9220 C   0  0  0  0  0  0  0  0  0  0  0  0
   -3.7669   -0.0510    0.5408 O   0  0  0  0  0  0  0  0  0  0  0  0
   -4.8768   -0.8747    0.1358 C   0  0  0  0  0  0  0  0  0  0  0  0
   -4.4600   -2.2992   -0.1658 C   0  0  0  0  0  0  0  0  0  0  0  0
    2.1354   -1.7562    3.1750 H   0  0  0  0  0  0  0  0  0  0  0  0
    3.6228   -1.1227    2.4681 H   0  0  0  0  0  0  0  0  0  0  0  0
    3.2136   -0.7384    4.1482 H   0  0  0  0  0  0  0  0  0  0  0  0
    2.7437    1.1930    2.6213 H   0  0  0  0  0  0  0  0  0  0  0  0
    1.2438    0.5812    3.3792 H   0  0  0  0  0  0  0  0  0  0  0  0
    4.6167   -0.3229   -1.1058 H   0  0  0  0  0  0  0  0  0  0  0  0
    4.2030    1.3010   -1.7161 H   0  0  0  0  0  0  0  0  0  0  0  0
    6.5380    1.2696   -0.8631 H   0  0  0  0  0  0  0  0  0  0  0  0
    5.5327    2.3197    0.1480 H   0  0  0  0  0  0  0  0  0  0  0  0
    5.9730    0.7025    0.7148 H   0  0  0  0  0  0  0  0  0  0  0  0
    0.5140   -1.7735   -1.7102 H   0  0  0  0  0  0  0  0  0  0  0  0
   -0.7929   -0.7615   -2.4340 H   0  0  0  0  0  0  0  0  0  0  0  0
   -2.5676    1.7013    2.2391 H   0  0  0  0  0  0  0  0  0  0  0  0
   -1.1352    0.6736    1.9690 H   0  0  0  0  0  0  0  0  0  0  0  0
   -0.5130    2.8988    2.9823 H   0  0  0  0  0  0  0  0  0  0  0  0
    0.2061    2.6807    1.3750 H   0  0  0  0  0  0  0  0  0  0  0  0
   -1.2144    3.7103    1.5712 H   0  0  0  0  0  0  0  0  0  0  0  0
   -5.5578   -0.8251    0.9866 H   0  0  0  0  0  0  0  0  0  0  0  0
   -5.3414   -0.4163   -0.7423 H   0  0  0  0  0  0  0  0  0  0  0  0
   -3.8967   -2.7150    0.6659 H   0  0  0  0  0  0  0  0  0  0  0  0
   -5.3457   -2.9017   -0.3395 H   0  0  0  0  0  0  0  0  0  0  0  0
   -3.8371   -2.3240   -1.0587 H   0  0  0  0  0  0  0  0  0  0  0  0
  1  2  1  0  0  0  0
  2  3  1  0  0  0  0
  3  4  2  0  0  0  0
  4  5  2  0  0  0  0
  4  6  2  0  0  0  0
  6  7  1  0  0  0  0
  7  8  1  0  0  0  0
  4  9  1  0  0  0  0
  9 10  1  0  0  0  0
 10 11  1  0  0  0  0
 11 12  1  0  0  0  0
 12 13  2  0  0  0  0
 12 14  2  0  0  0  0
 14 15  1  0  0  0  0
 15 16  1  0  0  0  0
 12 17  2  0  0  0  0
 17 18  1  0  0  0  0
 18 19  1  0  0  0  0
  1 20  1  0  0  0  0
  1 21  1  0  0  0  0
  1 22  1  0  0  0  0
  2 23  1  0  0  0  0
  2 24  1  0  0  0  0
  7 25  1  0  0  0  0
  7 26  1  0  0  0  0
  8 27  1  0  0  0  0
  8 28  1  0  0  0  0
  8 29  1  0  0  0  0
 10 30  1  0  0  0  0
 10 31  1  0  0  0  0
 15 32  1  0  0  0  0
 15 33  1  0  0  0  0
 16 34  1  0  0  0  0
 16 35  1  0  0  0  0
 16 36  1  0  0  0  0
 18 37  1  0  0  0  0
 18 38  1  0  0  0  0
 19 39  1  0  0  0  0
 19 40  1  0  0  0  0
 19 41  1  0  0  0  0
M  END
