 xtb: 6.7.1 (edcfbbe)
          04092507313D

 38 37  0     0  0            999 V2000
    3.0711   -3.9599    0.2739 C   0  0  0  0  0  0  0  0  0  0  0  0
    2.8615   -2.4920    0.5848 C   0  0  0  0  0  0  0  0  0  0  0  0
    2.3868   -1.8485   -0.6138 O   0  0  0  0  0  0  0  0  0  0  0  0
    2.1594   -0.5572   -0.5778 C   0  0  0  0  0  0  0  0  0  0  0  0
    2.3140    0.1480    0.4002 O   0  0  0  0  0  0  0  0  0  0  0  0
    1.7028   -0.0137   -1.9187 C   0  0  0  0  0  0  0  0  0  0  0  0
    0.4280    0.8197   -1.7592 C   0  0  0  0  0  0  0  0  0  0  0  0
    0.2938    1.4632   -2.6318 H   0  0  0  0  0  0  0  0  0  0  0  0
    0.4812    1.6776   -0.5101 C   0  0  0  0  0  0  0  0  0  0  0  0
   -0.2922    1.5161    0.4180 O   0  0  0  0  0  0  0  0  0  0  0  0
    1.3875    2.6046   -0.5880 O   0  0  0  0  0  0  0  0  0  0  0  0
    1.5987    3.4606    0.5565 C   0  0  0  0  0  0  0  0  0  0  0  0
    0.6127    4.6165    0.5649 C   0  0  0  0  0  0  0  0  0  0  0  0
   -1.0727   -0.2119   -1.6992 S   0  0  0  0  0  0  0  0  0  0  0  0
   -1.5687   -0.5482    0.3496 P   0  0  0  0  0  0  0  0  0  0  0  0
   -0.3470   -1.1139    1.7726 S   0  0  0  0  0  0  0  0  0  0  0  0
   -2.7417    0.4766    0.7398 O   0  0  0  0  0  0  0  0  0  0  0  0
   -2.6813    1.4862    1.7439 C   0  0  0  0  0  0  0  0  0  0  0  0
   -2.4674   -1.8487    0.0746 O   0  0  0  0  0  0  0  0  0  0  0  0
   -3.6129   -1.8839   -0.7918 C   0  0  0  0  0  0  0  0  0  0  0  0
    3.4388   -4.4625    1.1620 H   0  0  0  0  0  0  0  0  0  0  0  0
    2.1303   -4.4108   -0.0274 H   0  0  0  0  0  0  0  0  0  0  0  0
    3.7919   -4.0717   -0.5305 H   0  0  0  0  0  0  0  0  0  0  0  0
    3.7893   -1.9990    0.8913 H   0  0  0  0  0  0  0  0  0  0  0  0
    2.1156   -2.3409    1.3727 H   0  0  0  0  0  0  0  0  0  0  0  0
    1.5347   -0.8350   -2.6136 H   0  0  0  0  0  0  0  0  0  0  0  0
    2.4985    0.6342   -2.2928 H   0  0  0  0  0  0  0  0  0  0  0  0
    1.5112    2.8502    1.4594 H   0  0  0  0  0  0  0  0  0  0  0  0
    2.6241    3.8093    0.4372 H   0  0  0  0  0  0  0  0  0  0  0  0
    0.6862    5.1778   -0.3623 H   0  0  0  0  0  0  0  0  0  0  0  0
   -0.4033    4.2461    0.6787 H   0  0  0  0  0  0  0  0  0  0  0  0
    0.8410    5.2710    1.3994 H   0  0  0  0  0  0  0  0  0  0  0  0
   -1.8723    1.2777    2.4450 H   0  0  0  0  0  0  0  0  0  0  0  0
   -3.6416    1.4625    2.2554 H   0  0  0  0  0  0  0  0  0  0  0  0
   -2.5193    2.4533    1.2712 H   0  0  0  0  0  0  0  0  0  0  0  0
   -4.0935   -2.8371   -0.5855 H   0  0  0  0  0  0  0  0  0  0  0  0
   -3.2933   -1.8330   -1.8323 H   0  0  0  0  0  0  0  0  0  0  0  0
   -4.2837   -1.0577   -0.5631 H   0  0  0  0  0  0  0  0  0  0  0  0
  1  2  1  0  0  0  0
  2  3  1  0  0  0  0
  3  4  4  0  0  0  0
  4  5  2  0  0  0  0
  4  6  1  0  0  0  0
  6  7  1  0  0  0  0
  7  8  1  0  0  0  0
  7  9  1  0  0  0  0
  9 10  2  0  0  0  0
  9 11  4  0  0  0  0
 11 12  1  0  0  0  0
 12 13  1  0  0  0  0
  7 14  1  0  0  0  0
 14 15  1  0  0  0  0
 15 16  2  0  0  0  0
 15 17  1  0  0  0  0
 17 18  1  0  0  0  0
 15 19  1  0  0  0  0
 19 20  1  0  0  0  0
  1 21  1  0  0  0  0
  1 22  1  0  0  0  0
  1 23  1  0  0  0  0
  2 24  1  0  0  0  0
  2 25  1  0  0  0  0
  6 26  1  0  0  0  0
  6 27  1  0  0  0  0
 12 28  1  0  0  0  0
 12 29  1  0  0  0  0
 13 30  1  0  0  0  0
 13 31  1  0  0  0  0
 13 32  1  0  0  0  0
 18 33  1  0  0  0  0
 18 34  1  0  0  0  0
 18 35  1  0  0  0  0
 20 36  1  0  0  0  0
 20 37  1  0  0  0  0
 20 38  1  0  0  0  0
M  END
