22
 xtb: 6.7.1 (edcfbbe)
C            3.58047228240348        0.69600260509428        0.00191178302870
C            3.58047203734415       -0.69601613890938        0.00211062006787
C            2.37459958919615       -1.39426104783491        0.00072148763185
C            1.17641763286815       -0.69684420578955       -0.00091943812458
C            1.17641728913091        0.69683600589763       -0.00100242555688
C            2.37460191173920        1.39424970374384        0.00039689766263
O            0.00001079149184        1.43245769621906       -0.00260326607161
C           -1.17639678790763        0.69683602412730       -0.00086683828019
C           -2.37457629021949        1.39425446614311        0.00083080311481
C           -3.58045380180928        0.69601650412243        0.00223075241067
C           -3.58045701568401       -0.69600027146132        0.00198225628435
C           -2.37458607625519       -1.39425129209849        0.00041857577124
C           -1.17639773815011       -0.69684494463242       -0.00098293541871
O            0.00000825568193       -1.43246761671623       -0.00261144819810
H            4.51543807432271        1.24579611571851        0.00296977452983
H            4.51543501336427       -1.24581642850275        0.00337287390942
H            2.34710755894495       -2.47920967686810        0.00083185172534
H            2.34712192101498        2.47919836070555        0.00024090920890
H           -2.34707520391795        2.47920318899530        0.00096925295204
H           -4.51540862125919        1.24583278101607        0.00353758761916
H           -4.51541287595838       -1.24581058334505        0.00303647480413
H           -2.34711892371776       -2.47919930150845        0.00022709289401
