  22
 
 C         -4.2336138614        0.9563619766        0.0002028723
 O         -3.4652971120       -0.2363689963        0.0017527952
 C         -2.1177457584       -0.1509671716        0.0014930675
 C         -1.4296820736       -1.3712649674        0.0003260912
 C         -0.0566539578       -1.3932922069       -0.0004135538
 C          0.6707434134       -0.1991647551        0.0002683672
 C         -0.0146572564        1.0140880717        0.0017678321
 C         -1.3942064572        1.0425762236        0.0022498986
 C          2.1381616112       -0.2609399124       -0.0006372559
 O          2.7866285007       -1.2943795797       -0.0035394436
 O          2.7172566776        0.9437636167        0.0021417894
 C          4.1439636331        0.9761686056        0.0017847854
 H         -5.2698542818        0.6267930114       -0.0000318125
 H         -4.0353114144        1.5494301960       -0.8952306250
 H         -4.0364698060        1.5513857984        0.8945561699
 H         -2.0053179468       -2.2825623985       -0.0001008912
 H          0.4853104376       -2.3265809191       -0.0015828349
 H          0.5439793749        1.9362273485        0.0024116910
 H         -1.8986309190        1.9945228667        0.0032756659
 H          4.4118528321        2.0279998885       -0.0013411300
 H          4.5295723438        0.4694594964       -0.8841216798
 H          4.5297795123        0.4748285013        0.8906521706
          22
        -36.57772821
 C         -4.3795075396       -0.4682708269        0.0069950404
 O         -3.4256246275        0.5814609639        0.0019302104
 C         -2.1102534275        0.2770082358       -0.0012898240
 C         -1.2333542878        1.3699522877       -0.0035609041
 C          0.1266689431        1.1766640817       -0.0046308827
 C          0.6498985213       -0.1198994137       -0.0039104780
 C         -0.2237920815       -1.2056402484       -0.0037160254
 C         -1.5902973497       -1.0178713885       -0.0024109882
 C          2.0964952553       -0.3739173990       -0.0009400637
 O          2.6027147207       -1.4842719719       -0.0001864154
 O          2.8286721561        0.7436091953        0.0009203992
 C          4.2472824625        0.5885322222        0.0069348755
 H         -4.2870948270       -1.0870990926       -0.8882097964
 H         -5.3473258301        0.0275152794        0.0124410870
 H         -4.2772918080       -1.0874439648        0.9009255829
 H         -1.6577752450        2.3608258297       -0.0037793041
 H          0.7988928986        2.0191586033       -0.0056478382
 H          0.1941101297       -2.2010897024       -0.0037967388
 H         -2.2397482226       -1.8774115085       -0.0020876148
 H          4.6510652654        1.5958373248       -0.0132729013
 H          4.5656136971        0.0194844082       -0.8677827159
 H          4.5614618388        0.0575377739        0.9067269718
