 xtb: 6.7.1 (edcfbbe)
          04092505213D

 41 40  0     0  0            999 V2000
    3.8454    0.6268   -2.6994 C   0  0  0  0  0  0  0  0  0  0  0  0
    4.1626    1.3410   -1.4004 C   0  0  0  0  0  0  0  0  0  0  0  0
    3.9448    0.5003   -0.2541 O   0  0  0  0  0  0  0  0  0  0  0  0
    2.4994    0.0562    0.2000 P   0  0  0  0  0  0  0  0  0  0  0  0
    1.1148    1.4339   -0.0420 S   0  0  0  0  0  0  0  0  0  0  0  0
    2.9256   -0.3206    1.6755 O   0  0  0  0  0  0  0  0  0  0  0  0
    2.1377   -1.0826    2.6069 C   0  0  0  0  0  0  0  0  0  0  0  0
    1.1072   -0.2193    3.3087 C   0  0  0  0  0  0  0  0  0  0  0  0
    2.1377   -1.8058   -0.7723 S   0  0  0  0  0  0  0  0  0  0  0  0
    0.3762   -1.6296   -1.1258 C   0  0  0  0  0  0  0  0  0  0  0  0
   -0.6374   -1.6312    0.3987 S   0  0  0  0  0  0  0  0  0  0  0  0
   -2.0810   -0.1822   -0.1110 P   0  0  0  0  0  0  0  0  0  0  0  0
   -1.9849    0.5890   -1.9138 S   0  0  0  0  0  0  0  0  0  0  0  0
   -2.1224    0.8719    1.0820 O   0  0  0  0  0  0  0  0  0  0  0  0
   -1.9408    2.2895    0.9361 C   0  0  0  0  0  0  0  0  0  0  0  0
   -3.2839    2.9914    0.9403 C   0  0  0  0  0  0  0  0  0  0  0  0
   -3.3181   -1.1210    0.2312 O   0  0  0  0  0  0  0  0  0  0  0  0
   -4.6665   -0.6423    0.4035 C   0  0  0  0  0  0  0  0  0  0  0  0
   -5.3568   -0.4043   -0.9253 C   0  0  0  0  0  0  0  0  0  0  0  0
    4.1567    1.2452   -3.5352 H   0  0  0  0  0  0  0  0  0  0  0  0
    4.3644   -0.3274   -2.7411 H   0  0  0  0  0  0  0  0  0  0  0  0
    2.7733    0.4487   -2.7761 H   0  0  0  0  0  0  0  0  0  0  0  0
    3.5492    2.2423   -1.2963 H   0  0  0  0  0  0  0  0  0  0  0  0
    5.2191    1.6037   -1.3335 H   0  0  0  0  0  0  0  0  0  0  0  0
    1.6559   -1.9154    2.0837 H   0  0  0  0  0  0  0  0  0  0  0  0
    2.8737   -1.4705    3.3135 H   0  0  0  0  0  0  0  0  0  0  0  0
    1.5891    0.6375    3.7719 H   0  0  0  0  0  0  0  0  0  0  0  0
    0.3641    0.1397    2.5987 H   0  0  0  0  0  0  0  0  0  0  0  0
    0.6052   -0.8089    4.0688 H   0  0  0  0  0  0  0  0  0  0  0  0
    0.1059   -2.4917   -1.7300 H   0  0  0  0  0  0  0  0  0  0  0  0
    0.1841   -0.6964   -1.6622 H   0  0  0  0  0  0  0  0  0  0  0  0
   -1.3212    2.5913    1.7819 H   0  0  0  0  0  0  0  0  0  0  0  0
   -1.3983    2.4913    0.0074 H   0  0  0  0  0  0  0  0  0  0  0  0
   -3.8334    2.7483    1.8459 H   0  0  0  0  0  0  0  0  0  0  0  0
   -3.1222    4.0635    0.8961 H   0  0  0  0  0  0  0  0  0  0  0  0
   -3.8656    2.6866    0.0722 H   0  0  0  0  0  0  0  0  0  0  0  0
   -5.1545   -1.4409    0.9654 H   0  0  0  0  0  0  0  0  0  0  0  0
   -4.6439    0.2692    1.0067 H   0  0  0  0  0  0  0  0  0  0  0  0
   -6.3845   -0.1037   -0.7472 H   0  0  0  0  0  0  0  0  0  0  0  0
   -4.8487    0.3786   -1.4852 H   0  0  0  0  0  0  0  0  0  0  0  0
   -5.3454   -1.3131   -1.5209 H   0  0  0  0  0  0  0  0  0  0  0  0
  1  2  1  0  0  0  0
  2  3  1  0  0  0  0
  3  4  2  0  0  0  0
  4  5  2  0  0  0  0
  4  6  2  0  0  0  0
  6  7  1  0  0  0  0
  7  8  1  0  0  0  0
  4  9  1  0  0  0  0
  9 10  1  0  0  0  0
 10 11  1  0  0  0  0
 11 12  1  0  0  0  0
 12 13  2  0  0  0  0
 12 14  2  0  0  0  0
 14 15  1  0  0  0  0
 15 16  1  0  0  0  0
 12 17  2  0  0  0  0
 17 18  1  0  0  0  0
 18 19  1  0  0  0  0
  1 20  1  0  0  0  0
  1 21  1  0  0  0  0
  1 22  1  0  0  0  0
  2 23  1  0  0  0  0
  2 24  1  0  0  0  0
  7 25  1  0  0  0  0
  7 26  1  0  0  0  0
  8 27  1  0  0  0  0
  8 28  1  0  0  0  0
  8 29  1  0  0  0  0
 10 30  1  0  0  0  0
 10 31  1  0  0  0  0
 15 32  1  0  0  0  0
 15 33  1  0  0  0  0
 16 34  1  0  0  0  0
 16 35  1  0  0  0  0
 16 36  1  0  0  0  0
 18 37  1  0  0  0  0
 18 38  1  0  0  0  0
 19 39  1  0  0  0  0
 19 40  1  0  0  0  0
 19 41  1  0  0  0  0
M  END
