38
 xtb: 6.7.1 (edcfbbe)
C            5.74652138814164       -1.49855832890668       -0.57734689801837
C            4.78470869375935       -2.62888460251552       -0.85621851431682
O            3.57761977552184       -2.50129565032458       -0.03038846315804
C            2.62924510966617       -1.66606317223951       -0.46971516856425
O            2.68682771984869       -1.03794214236126       -1.51290639413655
C            1.47080011390926       -1.60633315447165        0.49281903914892
C            0.38527359856945       -0.67379327611784       -0.03236217889402
H           -0.07759568402175       -1.07806838121811       -0.93585102205418
C            0.86101302340084        0.73480323063603       -0.34045298540549
O            0.45607425600314        1.38161994435118       -1.28914211153393
O            1.73090248806293        1.17622423374029        0.57146593360087
C            2.16959029532182        2.57142063680529        0.44957720737338
C            1.13550105612237        3.50503770790824        1.03250398140766
S           -0.92828107824709       -0.56638930498847        1.27869776869058
P           -2.55173668828753        0.23900021352546        0.18306951578587
S           -2.90797244984173       -0.52621102159469       -1.56675033687144
O           -3.71815459276738        0.11379673986453        1.29062265071327
C           -4.45049244126462       -1.13602906829106        1.44575143448377
O           -2.24753290233949        1.81439425406288        0.25712495031632
C           -2.85246767968017        2.73277787972309       -0.70095228084428
H            6.02197285706419       -1.47537583516316        0.48080667299015
H            6.65611986076385       -1.65565683842822       -1.16558214059568
H            5.31960455887468       -0.53179824193277       -0.85712540548892
H            5.19948066247529       -3.59339261910149       -0.55906332822415
H            4.48521488680092       -2.67147623149404       -1.90602634899801
H            1.85214218141194       -1.28739075512042        1.46837197645262
H            1.07014087703553       -2.61764981907253        0.61837649805941
H            3.10283120704372        2.59802514187633        1.01411582231883
H            2.37533457817947        2.77988878697623       -0.60302767037901
H            0.92672791990170        3.24868919966407        2.07522013017503
H            1.52514373990388        4.52741067414689        1.00137819528069
H            0.20179048513962        3.47578506381365        0.46381560792780
H           -3.76917154032777       -1.94733566880796        1.71684406431153
H           -4.98087026340465       -1.37563654349525        0.52122410757764
H           -5.15953918666853       -0.95785238949034        2.25401250547537
H           -3.94247551522017        2.67548732416513       -0.64762769342675
H           -2.50477227859103        2.50234252961513       -1.71038365230198
H           -2.51258929911390        3.72392432534040       -0.40071524258830
