 xtb: 6.7.1 (edcfbbe)
          04092505203D

 41 40  0     0  0            999 V2000
    2.4198    2.2731    2.5105 C   0  0  0  0  0  0  0  0  0  0  0  0
    1.4302    1.9054    1.4241 C   0  0  0  0  0  0  0  0  0  0  0  0
    0.9895    0.5345    1.5750 O   0  0  0  0  0  0  0  0  0  0  0  0
    1.5810   -0.6525    0.7263 P   0  0  0  0  0  0  0  0  0  0  0  0
    0.8804   -2.3899    1.2939 S   0  0  0  0  0  0  0  0  0  0  0  0
    3.1436   -0.4088    0.9322 O   0  0  0  0  0  0  0  0  0  0  0  0
    4.1745   -1.1505    0.2557 C   0  0  0  0  0  0  0  0  0  0  0  0
    4.4938   -2.4501    0.9687 C   0  0  0  0  0  0  0  0  0  0  0  0
    1.3739   -0.1872   -1.3458 S   0  0  0  0  0  0  0  0  0  0  0  0
    0.1439   -1.4175   -1.8316 C   0  0  0  0  0  0  0  0  0  0  0  0
   -1.4512   -0.7194   -2.3637 S   0  0  0  0  0  0  0  0  0  0  0  0
   -2.0411    0.3873   -0.6660 P   0  0  0  0  0  0  0  0  0  0  0  0
   -3.9295    0.8966   -0.6356 S   0  0  0  0  0  0  0  0  0  0  0  0
   -1.0283    1.6127   -0.5207 O   0  0  0  0  0  0  0  0  0  0  0  0
   -1.2424    2.8591   -1.2070 C   0  0  0  0  0  0  0  0  0  0  0  0
   -0.9359    2.7511   -2.6877 C   0  0  0  0  0  0  0  0  0  0  0  0
   -1.5162   -0.5539    0.5023 O   0  0  0  0  0  0  0  0  0  0  0  0
   -2.2738   -0.7385    1.7161 C   0  0  0  0  0  0  0  0  0  0  0  0
   -2.1740    0.4664    2.6261 C   0  0  0  0  0  0  0  0  0  0  0  0
    2.6879    3.3198    2.4058 H   0  0  0  0  0  0  0  0  0  0  0  0
    1.9764    2.1132    3.4896 H   0  0  0  0  0  0  0  0  0  0  0  0
    3.3143    1.6620    2.4280 H   0  0  0  0  0  0  0  0  0  0  0  0
    1.8651    2.0310    0.4289 H   0  0  0  0  0  0  0  0  0  0  0  0
    0.5161    2.4974    1.5015 H   0  0  0  0  0  0  0  0  0  0  0  0
    3.8646   -1.3333   -0.7770 H   0  0  0  0  0  0  0  0  0  0  0  0
    5.0339   -0.4770    0.2625 H   0  0  0  0  0  0  0  0  0  0  0  0
    4.7666   -2.2538    2.0021 H   0  0  0  0  0  0  0  0  0  0  0  0
    3.6315   -3.1130    0.9589 H   0  0  0  0  0  0  0  0  0  0  0  0
    5.3221   -2.9387    0.4659 H   0  0  0  0  0  0  0  0  0  0  0  0
   -0.0082   -2.1066   -0.9965 H   0  0  0  0  0  0  0  0  0  0  0  0
    0.5174   -1.9381   -2.7102 H   0  0  0  0  0  0  0  0  0  0  0  0
   -2.2810    3.1667   -1.0463 H   0  0  0  0  0  0  0  0  0  0  0  0
   -0.5666    3.5563   -0.7092 H   0  0  0  0  0  0  0  0  0  0  0  0
    0.0588    2.3377   -2.8379 H   0  0  0  0  0  0  0  0  0  0  0  0
   -1.6631    2.1036   -3.1761 H   0  0  0  0  0  0  0  0  0  0  0  0
   -0.9872    3.7383   -3.1355 H   0  0  0  0  0  0  0  0  0  0  0  0
   -3.3159   -0.9351    1.4462 H   0  0  0  0  0  0  0  0  0  0  0  0
   -1.8315   -1.6284    2.1680 H   0  0  0  0  0  0  0  0  0  0  0  0
   -2.6034    1.3366    2.1307 H   0  0  0  0  0  0  0  0  0  0  0  0
   -2.7254    0.2692    3.5400 H   0  0  0  0  0  0  0  0  0  0  0  0
   -1.1331    0.6659    2.8656 H   0  0  0  0  0  0  0  0  0  0  0  0
  1  2  1  0  0  0  0
  2  3  1  0  0  0  0
  3  4  2  0  0  0  0
  4  5  2  0  0  0  0
  4  6  2  0  0  0  0
  6  7  1  0  0  0  0
  7  8  1  0  0  0  0
  4  9  1  0  0  0  0
  9 10  1  0  0  0  0
 10 11  1  0  0  0  0
 11 12  1  0  0  0  0
 12 13  2  0  0  0  0
 12 14  1  0  0  0  0
 14 15  1  0  0  0  0
 15 16  1  0  0  0  0
 12 17  1  0  0  0  0
 17 18  1  0  0  0  0
 18 19  1  0  0  0  0
  1 20  1  0  0  0  0
  1 21  1  0  0  0  0
  1 22  1  0  0  0  0
  2 23  1  0  0  0  0
  2 24  1  0  0  0  0
  7 25  1  0  0  0  0
  7 26  1  0  0  0  0
  8 27  1  0  0  0  0
  8 28  1  0  0  0  0
  8 29  1  0  0  0  0
 10 30  1  0  0  0  0
 10 31  1  0  0  0  0
 15 32  1  0  0  0  0
 15 33  1  0  0  0  0
 16 34  1  0  0  0  0
 16 35  1  0  0  0  0
 16 36  1  0  0  0  0
 18 37  1  0  0  0  0
 18 38  1  0  0  0  0
 19 39  1  0  0  0  0
 19 40  1  0  0  0  0
 19 41  1  0  0  0  0
M  END
