 xtb: 6.7.1 (edcfbbe)
          04092513573D

 41 40  0     0  0            999 V2000
    2.1854    2.1917   -1.0329 C   0  0  0  0  0  0  0  0  0  0  0  0
    2.3356    2.3112    0.4694 C   0  0  0  0  0  0  0  0  0  0  0  0
    1.6985    1.2238    1.1896 O   0  0  0  0  0  0  0  0  0  0  0  0
    2.0516   -0.3063    1.0281 P   0  0  0  0  0  0  0  0  0  0  0  0
    1.6308   -1.3462    2.6313 S   0  0  0  0  0  0  0  0  0  0  0  0
    3.5891   -0.2498    0.6318 O   0  0  0  0  0  0  0  0  0  0  0  0
    4.3931   -1.4437    0.5372 C   0  0  0  0  0  0  0  0  0  0  0  0
    5.8510   -1.0295    0.5794 C   0  0  0  0  0  0  0  0  0  0  0  0
    1.0875   -0.9945   -0.7575 S   0  0  0  0  0  0  0  0  0  0  0  0
   -0.2919   -1.9018   -0.0195 C   0  0  0  0  0  0  0  0  0  0  0  0
   -1.5335   -0.8547    0.7868 S   0  0  0  0  0  0  0  0  0  0  0  0
   -2.2214    0.1963   -0.9465 P   0  0  0  0  0  0  0  0  0  0  0  0
   -2.0626   -0.7132   -2.6654 S   0  0  0  0  0  0  0  0  0  0  0  0
   -1.4400    1.5706   -0.9127 O   0  0  0  0  0  0  0  0  0  0  0  0
   -1.4831    2.4631    0.2337 C   0  0  0  0  0  0  0  0  0  0  0  0
   -1.3347    3.8856   -0.2654 C   0  0  0  0  0  0  0  0  0  0  0  0
   -3.6910    0.6548   -0.5351 O   0  0  0  0  0  0  0  0  0  0  0  0
   -4.8717   -0.0933   -0.8780 C   0  0  0  0  0  0  0  0  0  0  0  0
   -4.9814   -1.3927   -0.1070 C   0  0  0  0  0  0  0  0  0  0  0  0
    2.5773    3.0908   -1.4989 H   0  0  0  0  0  0  0  0  0  0  0  0
    2.7400    1.3320   -1.4045 H   0  0  0  0  0  0  0  0  0  0  0  0
    1.1408    2.0710   -1.3118 H   0  0  0  0  0  0  0  0  0  0  0  0
    1.8283    3.1964    0.8567 H   0  0  0  0  0  0  0  0  0  0  0  0
    3.3889    2.3328    0.7536 H   0  0  0  0  0  0  0  0  0  0  0  0
    4.1397   -2.1029    1.3738 H   0  0  0  0  0  0  0  0  0  0  0  0
    4.1484   -1.9455   -0.4028 H   0  0  0  0  0  0  0  0  0  0  0  0
    6.0700   -0.3466   -0.2364 H   0  0  0  0  0  0  0  0  0  0  0  0
    6.0752   -0.5380    1.5220 H   0  0  0  0  0  0  0  0  0  0  0  0
    6.4732   -1.9133    0.4820 H   0  0  0  0  0  0  0  0  0  0  0  0
    0.0791   -2.5697    0.7573 H   0  0  0  0  0  0  0  0  0  0  0  0
   -0.7540   -2.4505   -0.8390 H   0  0  0  0  0  0  0  0  0  0  0  0
   -2.4316    2.3234    0.7556 H   0  0  0  0  0  0  0  0  0  0  0  0
   -0.6631    2.1779    0.8983 H   0  0  0  0  0  0  0  0  0  0  0  0
   -1.3099    4.5562    0.5879 H   0  0  0  0  0  0  0  0  0  0  0  0
   -0.4164    3.9932   -0.8352 H   0  0  0  0  0  0  0  0  0  0  0  0
   -2.1741    4.1477   -0.9034 H   0  0  0  0  0  0  0  0  0  0  0  0
   -5.6889    0.5874   -0.6335 H   0  0  0  0  0  0  0  0  0  0  0  0
   -4.8573   -0.2857   -1.9552 H   0  0  0  0  0  0  0  0  0  0  0  0
   -4.9047   -1.2107    0.9619 H   0  0  0  0  0  0  0  0  0  0  0  0
   -5.9394   -1.8545   -0.3255 H   0  0  0  0  0  0  0  0  0  0  0  0
   -4.1863   -2.0735   -0.4065 H   0  0  0  0  0  0  0  0  0  0  0  0
  1  2  1  0  0  0  0
  2  3  1  0  0  0  0
  3  4  2  0  0  0  0
  4  5  2  0  0  0  0
  4  6  2  0  0  0  0
  6  7  1  0  0  0  0
  7  8  1  0  0  0  0
  4  9  1  0  0  0  0
  9 10  1  0  0  0  0
 10 11  1  0  0  0  0
 11 12  1  0  0  0  0
 12 13  2  0  0  0  0
 12 14  2  0  0  0  0
 14 15  1  0  0  0  0
 15 16  1  0  0  0  0
 12 17  2  0  0  0  0
 17 18  1  0  0  0  0
 18 19  1  0  0  0  0
  1 20  1  0  0  0  0
  1 21  1  0  0  0  0
  1 22  1  0  0  0  0
  2 23  1  0  0  0  0
  2 24  1  0  0  0  0
  7 25  1  0  0  0  0
  7 26  1  0  0  0  0
  8 27  1  0  0  0  0
  8 28  1  0  0  0  0
  8 29  1  0  0  0  0
 10 30  1  0  0  0  0
 10 31  1  0  0  0  0
 15 32  1  0  0  0  0
 15 33  1  0  0  0  0
 16 34  1  0  0  0  0
 16 35  1  0  0  0  0
 16 36  1  0  0  0  0
 18 37  1  0  0  0  0
 18 38  1  0  0  0  0
 19 39  1  0  0  0  0
 19 40  1  0  0  0  0
 19 41  1  0  0  0  0
M  END
