 xtb: 6.7.1 (edcfbbe)
          04092505203D

 41 40  0     0  0            999 V2000
    4.6396    0.0573   -1.7812 C   0  0  0  0  0  0  0  0  0  0  0  0
    4.3840    1.1544   -0.7687 C   0  0  0  0  0  0  0  0  0  0  0  0
    3.4797    0.7410    0.2709 O   0  0  0  0  0  0  0  0  0  0  0  0
    1.9510    0.4098   -0.0017 P   0  0  0  0  0  0  0  0  0  0  0  0
    1.0303    1.5853   -1.2740 S   0  0  0  0  0  0  0  0  0  0  0  0
    1.3263    0.5231    1.4440 O   0  0  0  0  0  0  0  0  0  0  0  0
    1.9897    0.1879    2.6912 C   0  0  0  0  0  0  0  0  0  0  0  0
    2.2185   -1.3009    2.8475 C   0  0  0  0  0  0  0  0  0  0  0  0
    1.9564   -1.6514   -0.5360 S   0  0  0  0  0  0  0  0  0  0  0  0
    0.2121   -1.8027   -0.9654 C   0  0  0  0  0  0  0  0  0  0  0  0
   -0.8937   -1.5546    0.4602 S   0  0  0  0  0  0  0  0  0  0  0  0
   -2.1310    0.0175   -0.2639 P   0  0  0  0  0  0  0  0  0  0  0  0
   -2.1790    0.2139   -2.2087 S   0  0  0  0  0  0  0  0  0  0  0  0
   -1.7420    1.3493    0.4787 O   0  0  0  0  0  0  0  0  0  0  0  0
   -1.7853    1.4762    1.9235 C   0  0  0  0  0  0  0  0  0  0  0  0
   -1.0917    2.7708    2.2900 C   0  0  0  0  0  0  0  0  0  0  0  0
   -3.5066   -0.3212    0.4665 O   0  0  0  0  0  0  0  0  0  0  0  0
   -4.2756   -1.5136    0.2157 C   0  0  0  0  0  0  0  0  0  0  0  0
   -5.2378   -1.3237   -0.9403 C   0  0  0  0  0  0  0  0  0  0  0  0
    4.9363   -0.8607   -1.2805 H   0  0  0  0  0  0  0  0  0  0  0  0
    3.7371   -0.1333   -2.3599 H   0  0  0  0  0  0  0  0  0  0  0  0
    5.4284    0.3718   -2.4571 H   0  0  0  0  0  0  0  0  0  0  0  0
    3.9648    2.0389   -1.2580 H   0  0  0  0  0  0  0  0  0  0  0  0
    5.2925    1.4232   -0.2276 H   0  0  0  0  0  0  0  0  0  0  0  0
    2.9306    0.7384    2.7361 H   0  0  0  0  0  0  0  0  0  0  0  0
    1.2993    0.5678    3.4463 H   0  0  0  0  0  0  0  0  0  0  0  0
    2.5656   -1.4970    3.8572 H   0  0  0  0  0  0  0  0  0  0  0  0
    1.2934   -1.8470    2.6755 H   0  0  0  0  0  0  0  0  0  0  0  0
    2.9684   -1.6495    2.1415 H   0  0  0  0  0  0  0  0  0  0  0  0
    0.0772   -2.8190   -1.3268 H   0  0  0  0  0  0  0  0  0  0  0  0
   -0.0555   -1.0727   -1.7353 H   0  0  0  0  0  0  0  0  0  0  0  0
   -2.8333    1.4774    2.2286 H   0  0  0  0  0  0  0  0  0  0  0  0
   -1.2798    0.6088    2.3581 H   0  0  0  0  0  0  0  0  0  0  0  0
   -0.0640    2.7530    1.9357 H   0  0  0  0  0  0  0  0  0  0  0  0
   -1.6012    3.6098    1.8244 H   0  0  0  0  0  0  0  0  0  0  0  0
   -1.1040    2.8917    3.3684 H   0  0  0  0  0  0  0  0  0  0  0  0
   -3.5923   -2.3461    0.0266 H   0  0  0  0  0  0  0  0  0  0  0  0
   -4.8102   -1.6862    1.1518 H   0  0  0  0  0  0  0  0  0  0  0  0
   -4.6904   -1.1400   -1.8622 H   0  0  0  0  0  0  0  0  0  0  0  0
   -5.8385   -2.2200   -1.0555 H   0  0  0  0  0  0  0  0  0  0  0  0
   -5.8892   -0.4752   -0.7495 H   0  0  0  0  0  0  0  0  0  0  0  0
  1  2  1  0  0  0  0
  2  3  1  0  0  0  0
  3  4  2  0  0  0  0
  4  5  2  0  0  0  0
  4  6  2  0  0  0  0
  6  7  1  0  0  0  0
  7  8  1  0  0  0  0
  4  9  1  0  0  0  0
  9 10  1  0  0  0  0
 10 11  1  0  0  0  0
 11 12  1  0  0  0  0
 12 13  2  0  0  0  0
 12 14  2  0  0  0  0
 14 15  1  0  0  0  0
 15 16  1  0  0  0  0
 12 17  2  0  0  0  0
 17 18  1  0  0  0  0
 18 19  1  0  0  0  0
  1 20  1  0  0  0  0
  1 21  1  0  0  0  0
  1 22  1  0  0  0  0
  2 23  1  0  0  0  0
  2 24  1  0  0  0  0
  7 25  1  0  0  0  0
  7 26  1  0  0  0  0
  8 27  1  0  0  0  0
  8 28  1  0  0  0  0
  8 29  1  0  0  0  0
 10 30  1  0  0  0  0
 10 31  1  0  0  0  0
 15 32  1  0  0  0  0
 15 33  1  0  0  0  0
 16 34  1  0  0  0  0
 16 35  1  0  0  0  0
 16 36  1  0  0  0  0
 18 37  1  0  0  0  0
 18 38  1  0  0  0  0
 19 39  1  0  0  0  0
 19 40  1  0  0  0  0
 19 41  1  0  0  0  0
M  END
