 xtb: 6.7.1 (edcfbbe)
          04092505213D

 41 40  0     0  0            999 V2000
    5.0833   -1.6354   -0.5302 C   0  0  0  0  0  0  0  0  0  0  0  0
    4.5819   -0.6446   -1.5596 C   0  0  0  0  0  0  0  0  0  0  0  0
    3.1769   -0.3585   -1.3954 O   0  0  0  0  0  0  0  0  0  0  0  0
    2.6304    0.4276   -0.1282 P   0  0  0  0  0  0  0  0  0  0  0  0
    3.8013    1.8148    0.6041 S   0  0  0  0  0  0  0  0  0  0  0  0
    2.2874   -0.7698    0.8695 O   0  0  0  0  0  0  0  0  0  0  0  0
    2.2024   -0.5812    2.2903 C   0  0  0  0  0  0  0  0  0  0  0  0
    1.0209    0.2805    2.6861 C   0  0  0  0  0  0  0  0  0  0  0  0
    0.7834    1.0617   -0.9359 S   0  0  0  0  0  0  0  0  0  0  0  0
    0.1565   -0.5538   -1.5016 C   0  0  0  0  0  0  0  0  0  0  0  0
   -0.6863   -1.4969   -0.2097 S   0  0  0  0  0  0  0  0  0  0  0  0
   -2.3711   -0.2309   -0.0572 P   0  0  0  0  0  0  0  0  0  0  0  0
   -3.0190    0.5248   -1.7532 S   0  0  0  0  0  0  0  0  0  0  0  0
   -1.8928    0.8230    1.0209 O   0  0  0  0  0  0  0  0  0  0  0  0
   -2.4262    2.1592    1.0783 C   0  0  0  0  0  0  0  0  0  0  0  0
   -3.8516    2.1563    1.5883 C   0  0  0  0  0  0  0  0  0  0  0  0
   -3.3882   -1.0962    0.8027 O   0  0  0  0  0  0  0  0  0  0  0  0
   -4.0242   -2.2899    0.3037 C   0  0  0  0  0  0  0  0  0  0  0  0
   -5.3383   -1.9680   -0.3815 C   0  0  0  0  0  0  0  0  0  0  0  0
    5.0528   -1.1858    0.4614 H   0  0  0  0  0  0  0  0  0  0  0  0
    4.4638   -2.5284   -0.5319 H   0  0  0  0  0  0  0  0  0  0  0  0
    6.1087   -1.9053   -0.7624 H   0  0  0  0  0  0  0  0  0  0  0  0
    4.6489   -1.0417   -2.5733 H   0  0  0  0  0  0  0  0  0  0  0  0
    5.1354    0.2971   -1.4909 H   0  0  0  0  0  0  0  0  0  0  0  0
    2.1148   -1.5937    2.6859 H   0  0  0  0  0  0  0  0  0  0  0  0
    3.1350   -0.1206    2.6323 H   0  0  0  0  0  0  0  0  0  0  0  0
    0.0885   -0.1564    2.3369 H   0  0  0  0  0  0  0  0  0  0  0  0
    0.9889    0.3741    3.7669 H   0  0  0  0  0  0  0  0  0  0  0  0
    1.1287    1.2738    2.2486 H   0  0  0  0  0  0  0  0  0  0  0  0
    0.9829   -1.1578   -1.8626 H   0  0  0  0  0  0  0  0  0  0  0  0
   -0.5548   -0.3310   -2.2978 H   0  0  0  0  0  0  0  0  0  0  0  0
   -1.7502    2.6867    1.7523 H   0  0  0  0  0  0  0  0  0  0  0  0
   -2.3685    2.6021    0.0786 H   0  0  0  0  0  0  0  0  0  0  0  0
   -3.9042    1.6559    2.5514 H   0  0  0  0  0  0  0  0  0  0  0  0
   -4.2032    3.1782    1.6888 H   0  0  0  0  0  0  0  0  0  0  0  0
   -4.4907    1.6279    0.8815 H   0  0  0  0  0  0  0  0  0  0  0  0
   -3.3403   -2.8042   -0.3776 H   0  0  0  0  0  0  0  0  0  0  0  0
   -4.1805   -2.9032    1.1931 H   0  0  0  0  0  0  0  0  0  0  0  0
   -5.1674   -1.3369   -1.2508 H   0  0  0  0  0  0  0  0  0  0  0  0
   -5.8097   -2.8913   -0.7026 H   0  0  0  0  0  0  0  0  0  0  0  0
   -6.0006   -1.4468    0.3042 H   0  0  0  0  0  0  0  0  0  0  0  0
  1  2  1  0  0  0  0
  2  3  1  0  0  0  0
  3  4  2  0  0  0  0
  4  5  2  0  0  0  0
  4  6  2  0  0  0  0
  6  7  1  0  0  0  0
  7  8  1  0  0  0  0
  4  9  1  0  0  0  0
  9 10  1  0  0  0  0
 10 11  1  0  0  0  0
 11 12  1  0  0  0  0
 12 13  2  0  0  0  0
 12 14  2  0  0  0  0
 14 15  1  0  0  0  0
 15 16  1  0  0  0  0
 12 17  2  0  0  0  0
 17 18  1  0  0  0  0
 18 19  1  0  0  0  0
  1 20  1  0  0  0  0
  1 21  1  0  0  0  0
  1 22  1  0  0  0  0
  2 23  1  0  0  0  0
  2 24  1  0  0  0  0
  7 25  1  0  0  0  0
  7 26  1  0  0  0  0
  8 27  1  0  0  0  0
  8 28  1  0  0  0  0
  8 29  1  0  0  0  0
 10 30  1  0  0  0  0
 10 31  1  0  0  0  0
 15 32  1  0  0  0  0
 15 33  1  0  0  0  0
 16 34  1  0  0  0  0
 16 35  1  0  0  0  0
 16 36  1  0  0  0  0
 18 37  1  0  0  0  0
 18 38  1  0  0  0  0
 19 39  1  0  0  0  0
 19 40  1  0  0  0  0
 19 41  1  0  0  0  0
M  END
