 xtb: 6.7.1 (edcfbbe)
          04092509473D

 38 37  0     0  0            999 V2000
    3.1325   -4.5908   -0.6703 C   0  0  0  0  0  0  0  0  0  0  0  0
    3.5949   -3.4985   -1.6217 C   0  0  0  0  0  0  0  0  0  0  0  0
    3.4461   -2.1981   -1.0199 O   0  0  0  0  0  0  0  0  0  0  0  0
    2.2930   -1.5686   -1.1421 C   0  0  0  0  0  0  0  0  0  0  0  0
    1.3348   -1.9905   -1.7510 O   0  0  0  0  0  0  0  0  0  0  0  0
    2.3392   -0.2348   -0.4278 C   0  0  0  0  0  0  0  0  0  0  0  0
    0.9627    0.4005   -0.3282 C   0  0  0  0  0  0  0  0  0  0  0  0
    0.4355    0.3134   -1.2904 H   0  0  0  0  0  0  0  0  0  0  0  0
    1.0472    1.8800    0.0027 C   0  0  0  0  0  0  0  0  0  0  0  0
    2.0228    2.5511   -0.2413 O   0  0  0  0  0  0  0  0  0  0  0  0
   -0.0689    2.3347    0.5330 O   0  0  0  0  0  0  0  0  0  0  0  0
   -0.1334    3.7418    0.8567 C   0  0  0  0  0  0  0  0  0  0  0  0
    0.4015    4.0072    2.2545 C   0  0  0  0  0  0  0  0  0  0  0  0
   -0.0587   -0.4920    0.8925 S   0  0  0  0  0  0  0  0  0  0  0  0
   -1.9858    0.0361    0.1738 P   0  0  0  0  0  0  0  0  0  0  0  0
   -2.1227    0.5883   -1.6976 S   0  0  0  0  0  0  0  0  0  0  0  0
   -2.8583   -1.2496    0.5728 O   0  0  0  0  0  0  0  0  0  0  0  0
   -2.7654   -2.4873   -0.1390 C   0  0  0  0  0  0  0  0  0  0  0  0
   -2.5962    1.1055    1.1613 O   0  0  0  0  0  0  0  0  0  0  0  0
   -2.5891    0.9209    2.5902 C   0  0  0  0  0  0  0  0  0  0  0  0
    3.3023   -5.5599   -1.1275 H   0  0  0  0  0  0  0  0  0  0  0  0
    3.6846   -4.5321    0.2635 H   0  0  0  0  0  0  0  0  0  0  0  0
    2.0710   -4.4793   -0.4620 H   0  0  0  0  0  0  0  0  0  0  0  0
    3.0198   -3.5221   -2.5516 H   0  0  0  0  0  0  0  0  0  0  0  0
    4.6616   -3.5799   -1.8319 H   0  0  0  0  0  0  0  0  0  0  0  0
    2.9965    0.4377   -0.9856 H   0  0  0  0  0  0  0  0  0  0  0  0
    2.7762   -0.3809    0.5607 H   0  0  0  0  0  0  0  0  0  0  0  0
    0.4476    4.2898    0.1094 H   0  0  0  0  0  0  0  0  0  0  0  0
   -1.1908    3.9922    0.7726 H   0  0  0  0  0  0  0  0  0  0  0  0
    0.2941    5.0637    2.4779 H   0  0  0  0  0  0  0  0  0  0  0  0
   -0.1514    3.4281    2.9886 H   0  0  0  0  0  0  0  0  0  0  0  0
    1.4549    3.7424    2.3100 H   0  0  0  0  0  0  0  0  0  0  0  0
   -3.4688   -3.1578    0.3491 H   0  0  0  0  0  0  0  0  0  0  0  0
   -1.7525   -2.8864   -0.0804 H   0  0  0  0  0  0  0  0  0  0  0  0
   -3.0393   -2.3403   -1.1844 H   0  0  0  0  0  0  0  0  0  0  0  0
   -2.9687    1.8534    2.9995 H   0  0  0  0  0  0  0  0  0  0  0  0
   -1.5717    0.7301    2.9325 H   0  0  0  0  0  0  0  0  0  0  0  0
   -3.2346    0.0879    2.8613 H   0  0  0  0  0  0  0  0  0  0  0  0
  1  2  1  0  0  0  0
  2  3  1  0  0  0  0
  3  4  1  0  0  0  0
  4  5  2  0  0  0  0
  4  6  1  0  0  0  0
  6  7  1  0  0  0  0
  7  8  1  0  0  0  0
  7  9  1  0  0  0  0
  9 10  2  0  0  0  0
  9 11  1  0  0  0  0
 11 12  1  0  0  0  0
 12 13  1  0  0  0  0
  7 14  1  0  0  0  0
 14 15  1  0  0  0  0
 15 16  2  0  0  0  0
 15 17  1  0  0  0  0
 17 18  1  0  0  0  0
 15 19  2  0  0  0  0
 19 20  1  0  0  0  0
  1 21  1  0  0  0  0
  1 22  1  0  0  0  0
  1 23  1  0  0  0  0
  2 24  1  0  0  0  0
  2 25  1  0  0  0  0
  6 26  1  0  0  0  0
  6 27  1  0  0  0  0
 12 28  1  0  0  0  0
 12 29  1  0  0  0  0
 13 30  1  0  0  0  0
 13 31  1  0  0  0  0
 13 32  1  0  0  0  0
 18 33  1  0  0  0  0
 18 34  1  0  0  0  0
 18 35  1  0  0  0  0
 20 36  1  0  0  0  0
 20 37  1  0  0  0  0
 20 38  1  0  0  0  0
M  END
