  26
 
 C         -1.8515912787       -1.3359592883       -0.1642682807
 C         -1.5477520487       -0.0321108524        0.5689765330
 C         -2.1587573273        1.1525815647       -0.1811914051
 C         -0.0661449974        0.1699502170        0.9483124941
 C          1.0904329318        0.0480184810       -0.0703821448
 C          0.8333652309        0.7957918491       -1.3787907473
 C          2.3234608802        0.6747426166        0.6003566449
 C          1.4261796077       -1.4145907656       -0.3802434682
 H         -1.4017371064       -2.1811517357        0.3495552455
 H         -2.9280766874       -1.4924474162       -0.2011830473
 H         -1.4859903751       -1.3070856158       -1.1869394196
 H         -2.0669602771       -0.0834256568        1.5361232155
 H         -1.9026015839        2.0900202761        0.3072528516
 H         -1.8217169110        1.1957000928       -1.2112715953
 H         -3.2433052930        1.0596284673       -0.1879917274
 H         -0.0036620596        1.1686532990        1.3905077372
 H          0.1558844069       -0.5411307404        1.7498107142
 H          1.7421400441        0.8063387172       -1.9783491916
 H          0.5429993909        1.8248192631       -1.1835980741
 H          0.0559712512        0.3127304211       -1.9636490628
 H          3.2026574206        0.5546035800       -0.0287580567
 H          2.5221375416        0.1982711104        1.5579260653
 H          2.1706863998        1.7381797434        0.7716641016
 H          2.3331886633       -1.4654106774       -0.9794427676
 H          0.6322766889       -1.9009033268       -0.9355387714
 H          1.5963773299       -1.9711437177        0.5384360107
          26
        -26.32603729
 C         -2.4305590619        1.1644127808        0.0610080407
 C         -1.4287084846        0.0374674988       -0.1914223538
 C         -2.1016974274       -1.3112011555        0.0622739322
 C         -0.1797377645        0.2174940972        0.6921318197
 C          1.1853725377        0.0210324459        0.0050052299
 C          1.2937090061       -1.3594359509       -0.6456245268
 C          1.4196466660        1.1069972247       -1.0486107808
 C          2.2731639748        0.1426469805        1.0790820628
 H         -1.9906395096        2.1302741626       -0.1767431339
 H         -3.3173995159        1.0318542736       -0.5552118535
 H         -2.7377064016        1.1712709768        1.1048501551
 H         -1.1400371960        0.0803860419       -1.2454607579
 H         -1.4100202671       -2.1311959727       -0.1081974126
 H         -2.4565743697       -1.3674767988        1.0895712841
 H         -2.9553884443       -1.4404334664       -0.6000641277
 H         -0.1873611055        1.2260519389        1.1115722492
 H         -0.2433325814       -0.4766683690        1.5330436172
 H          2.2878385002       -1.4972969527       -1.0657814113
 H          0.5700206172       -1.4739197169       -1.4479341760
 H          1.1243559567       -2.1417252918        0.0908622511
 H          2.4044198645        0.9908940667       -1.4958614158
 H          1.3635696065        2.0944882738       -0.5958291488
 H          0.6806739575        1.0536655694       -1.8437044730
 H          2.2216803104        1.1122277083        1.5694512533
 H          3.2603263524        0.0362562624        0.6350992956
 H          2.1538940609       -0.6300056306        1.8353677049
