 xtb: 6.7.1 (edcfbbe)
          04092505213D

 41 40  0     0  0            999 V2000
    3.2857   -1.0878   -3.2069 C   0  0  0  0  0  0  0  0  0  0  0  0
    3.9151   -1.3639   -1.8553 C   0  0  0  0  0  0  0  0  0  0  0  0
    3.8086   -0.2437   -0.9602 O   0  0  0  0  0  0  0  0  0  0  0  0
    2.4647    0.2713   -0.2987 P   0  0  0  0  0  0  0  0  0  0  0  0
    1.3238    1.4207   -1.4190 S   0  0  0  0  0  0  0  0  0  0  0  0
    3.1881    0.9800    0.9083 O   0  0  0  0  0  0  0  0  0  0  0  0
    2.5815    1.9040    1.8270 C   0  0  0  0  0  0  0  0  0  0  0  0
    2.3446    1.2316    3.1644 C   0  0  0  0  0  0  0  0  0  0  0  0
    1.5229   -1.4783    0.4640 S   0  0  0  0  0  0  0  0  0  0  0  0
    0.2089   -1.6672   -0.7940 C   0  0  0  0  0  0  0  0  0  0  0  0
   -1.4370   -1.9289   -0.0947 S   0  0  0  0  0  0  0  0  0  0  0  0
   -1.9543    0.0958    0.3341 P   0  0  0  0  0  0  0  0  0  0  0  0
   -0.8495    1.0452    1.6357 S   0  0  0  0  0  0  0  0  0  0  0  0
   -3.4800   -0.0558    0.7474 O   0  0  0  0  0  0  0  0  0  0  0  0
   -3.8529   -0.6366    2.0143 C   0  0  0  0  0  0  0  0  0  0  0  0
   -5.3061   -0.2955    2.2727 C   0  0  0  0  0  0  0  0  0  0  0  0
   -2.0114    0.8365   -1.0493 O   0  0  0  0  0  0  0  0  0  0  0  0
   -2.8146    0.4045   -2.1771 C   0  0  0  0  0  0  0  0  0  0  0  0
   -4.1544    1.1101   -2.1836 C   0  0  0  0  0  0  0  0  0  0  0  0
    2.2150   -0.9222   -3.1021 H   0  0  0  0  0  0  0  0  0  0  0  0
    3.7250   -0.1975   -3.6497 H   0  0  0  0  0  0  0  0  0  0  0  0
    3.4542   -1.9362   -3.8622 H   0  0  0  0  0  0  0  0  0  0  0  0
    4.9921   -1.5171   -1.9451 H   0  0  0  0  0  0  0  0  0  0  0  0
    3.4602   -2.2380   -1.3784 H   0  0  0  0  0  0  0  0  0  0  0  0
    3.2979    2.7231    1.9168 H   0  0  0  0  0  0  0  0  0  0  0  0
    1.6458    2.2865    1.4064 H   0  0  0  0  0  0  0  0  0  0  0  0
    1.5933    0.4513    3.0661 H   0  0  0  0  0  0  0  0  0  0  0  0
    3.2700    0.7946    3.5282 H   0  0  0  0  0  0  0  0  0  0  0  0
    1.9839    1.9698    3.8728 H   0  0  0  0  0  0  0  0  0  0  0  0
    0.4209   -2.5553   -1.3832 H   0  0  0  0  0  0  0  0  0  0  0  0
    0.1993   -0.7604   -1.4070 H   0  0  0  0  0  0  0  0  0  0  0  0
   -3.6999   -1.7172    1.9504 H   0  0  0  0  0  0  0  0  0  0  0  0
   -3.1985   -0.2269    2.7908 H   0  0  0  0  0  0  0  0  0  0  0  0
   -5.4354    0.7826    2.3118 H   0  0  0  0  0  0  0  0  0  0  0  0
   -5.9300   -0.6983    1.4802 H   0  0  0  0  0  0  0  0  0  0  0  0
   -5.6083   -0.7265    3.2214 H   0  0  0  0  0  0  0  0  0  0  0  0
   -2.2155    0.6757   -3.0488 H   0  0  0  0  0  0  0  0  0  0  0  0
   -2.9393   -0.6809   -2.1292 H   0  0  0  0  0  0  0  0  0  0  0  0
   -4.7293    0.8352   -1.3035 H   0  0  0  0  0  0  0  0  0  0  0  0
   -4.0074    2.1868   -2.1844 H   0  0  0  0  0  0  0  0  0  0  0  0
   -4.7015    0.8220   -3.0759 H   0  0  0  0  0  0  0  0  0  0  0  0
  1  2  1  0  0  0  0
  2  3  1  0  0  0  0
  3  4  2  0  0  0  0
  4  5  2  0  0  0  0
  4  6  2  0  0  0  0
  6  7  1  0  0  0  0
  7  8  1  0  0  0  0
  4  9  1  0  0  0  0
  9 10  1  0  0  0  0
 10 11  1  0  0  0  0
 11 12  1  0  0  0  0
 12 13  2  0  0  0  0
 12 14  2  0  0  0  0
 14 15  1  0  0  0  0
 15 16  1  0  0  0  0
 12 17  2  0  0  0  0
 17 18  1  0  0  0  0
 18 19  1  0  0  0  0
  1 20  1  0  0  0  0
  1 21  1  0  0  0  0
  1 22  1  0  0  0  0
  2 23  1  0  0  0  0
  2 24  1  0  0  0  0
  7 25  1  0  0  0  0
  7 26  1  0  0  0  0
  8 27  1  0  0  0  0
  8 28  1  0  0  0  0
  8 29  1  0  0  0  0
 10 30  1  0  0  0  0
 10 31  1  0  0  0  0
 15 32  1  0  0  0  0
 15 33  1  0  0  0  0
 16 34  1  0  0  0  0
 16 35  1  0  0  0  0
 16 36  1  0  0  0  0
 18 37  1  0  0  0  0
 18 38  1  0  0  0  0
 19 39  1  0  0  0  0
 19 40  1  0  0  0  0
 19 41  1  0  0  0  0
M  END
