 xtb: 6.7.1 (edcfbbe)
          04092505213D

 41 40  0     0  0            999 V2000
    4.6403   -1.9365   -0.3768 C   0  0  0  0  0  0  0  0  0  0  0  0
    4.6670   -0.7104   -1.2650 C   0  0  0  0  0  0  0  0  0  0  0  0
    3.3435   -0.2631   -1.6469 O   0  0  0  0  0  0  0  0  0  0  0  0
    2.2207    0.2841   -0.6824 P   0  0  0  0  0  0  0  0  0  0  0  0
    0.9609    1.3292   -1.7633 S   0  0  0  0  0  0  0  0  0  0  0  0
    3.0957    0.9888    0.4339 O   0  0  0  0  0  0  0  0  0  0  0  0
    2.6268    1.6773    1.6067 C   0  0  0  0  0  0  0  0  0  0  0  0
    2.1963    3.0929    1.2821 C   0  0  0  0  0  0  0  0  0  0  0  0
    1.3575   -1.4005    0.3006 S   0  0  0  0  0  0  0  0  0  0  0  0
   -0.0070   -1.7218   -0.8599 C   0  0  0  0  0  0  0  0  0  0  0  0
   -1.5986   -1.9802   -0.0466 S   0  0  0  0  0  0  0  0  0  0  0  0
   -2.0765    0.0440    0.4394 P   0  0  0  0  0  0  0  0  0  0  0  0
   -0.8461    1.0467    1.5780 S   0  0  0  0  0  0  0  0  0  0  0  0
   -3.5736   -0.0962    0.9519 O   0  0  0  0  0  0  0  0  0  0  0  0
   -4.0268   -1.0429    1.9388 C   0  0  0  0  0  0  0  0  0  0  0  0
   -3.1987   -1.0164    3.2058 C   0  0  0  0  0  0  0  0  0  0  0  0
   -2.2450    0.7997   -0.9311 O   0  0  0  0  0  0  0  0  0  0  0  0
   -3.1393    0.3870   -1.9918 C   0  0  0  0  0  0  0  0  0  0  0  0
   -4.4291    1.1796   -1.9374 C   0  0  0  0  0  0  0  0  0  0  0  0
    5.6595   -2.2709   -0.2097 H   0  0  0  0  0  0  0  0  0  0  0  0
    4.1829   -1.7032    0.5827 H   0  0  0  0  0  0  0  0  0  0  0  0
    4.0748   -2.7361   -0.8479 H   0  0  0  0  0  0  0  0  0  0  0  0
    5.1404   -0.9211   -2.2253 H   0  0  0  0  0  0  0  0  0  0  0  0
    5.1777    0.1188   -0.7727 H   0  0  0  0  0  0  0  0  0  0  0  0
    1.8023    1.1190    2.0567 H   0  0  0  0  0  0  0  0  0  0  0  0
    3.4894    1.6680    2.2758 H   0  0  0  0  0  0  0  0  0  0  0  0
    1.3193    3.0792    0.6376 H   0  0  0  0  0  0  0  0  0  0  0  0
    1.9381    3.6055    2.2028 H   0  0  0  0  0  0  0  0  0  0  0  0
    2.9970    3.6271    0.7772 H   0  0  0  0  0  0  0  0  0  0  0  0
    0.2019   -2.6457   -1.3927 H   0  0  0  0  0  0  0  0  0  0  0  0
   -0.0752   -0.8698   -1.5432 H   0  0  0  0  0  0  0  0  0  0  0  0
   -5.0578   -0.7400    2.1301 H   0  0  0  0  0  0  0  0  0  0  0  0
   -4.0081   -2.0379    1.4856 H   0  0  0  0  0  0  0  0  0  0  0  0
   -2.1781   -1.3337    2.9944 H   0  0  0  0  0  0  0  0  0  0  0  0
   -3.1663   -0.0104    3.6179 H   0  0  0  0  0  0  0  0  0  0  0  0
   -3.6349   -1.6913    3.9352 H   0  0  0  0  0  0  0  0  0  0  0  0
   -2.5834    0.5915   -2.9095 H   0  0  0  0  0  0  0  0  0  0  0  0
   -3.3296   -0.6865   -1.9023 H   0  0  0  0  0  0  0  0  0  0  0  0
   -4.2125    2.2428   -1.9968 H   0  0  0  0  0  0  0  0  0  0  0  0
   -5.0573    0.8933   -2.7750 H   0  0  0  0  0  0  0  0  0  0  0  0
   -4.9540    0.9810   -1.0067 H   0  0  0  0  0  0  0  0  0  0  0  0
  1  2  1  0  0  0  0
  2  3  1  0  0  0  0
  3  4  2  0  0  0  0
  4  5  2  0  0  0  0
  4  6  2  0  0  0  0
  6  7  1  0  0  0  0
  7  8  1  0  0  0  0
  4  9  1  0  0  0  0
  9 10  1  0  0  0  0
 10 11  1  0  0  0  0
 11 12  1  0  0  0  0
 12 13  2  0  0  0  0
 12 14  2  0  0  0  0
 14 15  1  0  0  0  0
 15 16  1  0  0  0  0
 12 17  2  0  0  0  0
 17 18  1  0  0  0  0
 18 19  1  0  0  0  0
  1 20  1  0  0  0  0
  1 21  1  0  0  0  0
  1 22  1  0  0  0  0
  2 23  1  0  0  0  0
  2 24  1  0  0  0  0
  7 25  1  0  0  0  0
  7 26  1  0  0  0  0
  8 27  1  0  0  0  0
  8 28  1  0  0  0  0
  8 29  1  0  0  0  0
 10 30  1  0  0  0  0
 10 31  1  0  0  0  0
 15 32  1  0  0  0  0
 15 33  1  0  0  0  0
 16 34  1  0  0  0  0
 16 35  1  0  0  0  0
 16 36  1  0  0  0  0
 18 37  1  0  0  0  0
 18 38  1  0  0  0  0
 19 39  1  0  0  0  0
 19 40  1  0  0  0  0
 19 41  1  0  0  0  0
M  END
