 xtb: 6.7.1 (edcfbbe)
          04092505203D

 41 40  0     0  0            999 V2000
    4.5133    0.9005   -1.9293 C   0  0  0  0  0  0  0  0  0  0  0  0
    4.6439    0.1536   -0.6189 C   0  0  0  0  0  0  0  0  0  0  0  0
    3.5894    0.4702    0.3102 O   0  0  0  0  0  0  0  0  0  0  0  0
    2.0389    0.2950    0.0233 P   0  0  0  0  0  0  0  0  0  0  0  0
    1.1353    1.6697   -1.0457 S   0  0  0  0  0  0  0  0  0  0  0  0
    1.4398    0.3062    1.4812 O   0  0  0  0  0  0  0  0  0  0  0  0
    2.0393   -0.2671    2.6704 C   0  0  0  0  0  0  0  0  0  0  0  0
    2.1695   -1.7745    2.5999 C   0  0  0  0  0  0  0  0  0  0  0  0
    1.9073   -1.6587   -0.8094 S   0  0  0  0  0  0  0  0  0  0  0  0
    0.1522   -1.6278   -1.2074 C   0  0  0  0  0  0  0  0  0  0  0  0
   -0.9087   -1.6651    0.2821 S   0  0  0  0  0  0  0  0  0  0  0  0
   -2.0500    0.0737   -0.0045 P   0  0  0  0  0  0  0  0  0  0  0  0
   -2.3049    0.7085   -1.8457 S   0  0  0  0  0  0  0  0  0  0  0  0
   -1.3580    1.0536    1.0303 O   0  0  0  0  0  0  0  0  0  0  0  0
   -1.5566    2.4789    0.9989 C   0  0  0  0  0  0  0  0  0  0  0  0
   -2.9841    2.8653    1.3211 C   0  0  0  0  0  0  0  0  0  0  0  0
   -3.4033   -0.2617    0.7642 O   0  0  0  0  0  0  0  0  0  0  0  0
   -4.5378   -0.8595    0.1143 C   0  0  0  0  0  0  0  0  0  0  0  0
   -4.2770   -2.2950   -0.2947 C   0  0  0  0  0  0  0  0  0  0  0  0
    5.3717    0.6823   -2.5562 H   0  0  0  0  0  0  0  0  0  0  0  0
    3.6069    0.5929   -2.4489 H   0  0  0  0  0  0  0  0  0  0  0  0
    4.4581    1.9721   -1.7526 H   0  0  0  0  0  0  0  0  0  0  0  0
    5.5502    0.4423   -0.0835 H   0  0  0  0  0  0  0  0  0  0  0  0
    4.6369   -0.9265   -0.7880 H   0  0  0  0  0  0  0  0  0  0  0  0
    3.0107    0.2070    2.8212 H   0  0  0  0  0  0  0  0  0  0  0  0
    1.3491    0.0358    3.4597 H   0  0  0  0  0  0  0  0  0  0  0  0
    2.9077   -2.0635    1.8554 H   0  0  0  0  0  0  0  0  0  0  0  0
    2.4862   -2.1425    3.5710 H   0  0  0  0  0  0  0  0  0  0  0  0
    1.2135   -2.2260    2.3427 H   0  0  0  0  0  0  0  0  0  0  0  0
   -0.0420   -2.5283   -1.7841 H   0  0  0  0  0  0  0  0  0  0  0  0
   -0.0858   -0.7290   -1.7836 H   0  0  0  0  0  0  0  0  0  0  0  0
   -0.8517    2.8537    1.7429 H   0  0  0  0  0  0  0  0  0  0  0  0
   -1.2632    2.8460    0.0091 H   0  0  0  0  0  0  0  0  0  0  0  0
   -3.6485    2.5226    0.5286 H   0  0  0  0  0  0  0  0  0  0  0  0
   -3.2916    2.4137    2.2608 H   0  0  0  0  0  0  0  0  0  0  0  0
   -3.0529    3.9461    1.3956 H   0  0  0  0  0  0  0  0  0  0  0  0
   -5.3312   -0.7902    0.8597 H   0  0  0  0  0  0  0  0  0  0  0  0
   -4.7923   -0.2529   -0.7609 H   0  0  0  0  0  0  0  0  0  0  0  0
   -5.1999   -2.7368   -0.6566 H   0  0  0  0  0  0  0  0  0  0  0  0
   -3.5356   -2.3250   -1.0919 H   0  0  0  0  0  0  0  0  0  0  0  0
   -3.9075   -2.8686    0.5516 H   0  0  0  0  0  0  0  0  0  0  0  0
  1  2  1  0  0  0  0
  2  3  1  0  0  0  0
  3  4  2  0  0  0  0
  4  5  2  0  0  0  0
  4  6  2  0  0  0  0
  6  7  1  0  0  0  0
  7  8  1  0  0  0  0
  4  9  1  0  0  0  0
  9 10  1  0  0  0  0
 10 11  1  0  0  0  0
 11 12  1  0  0  0  0
 12 13  2  0  0  0  0
 12 14  2  0  0  0  0
 14 15  1  0  0  0  0
 15 16  1  0  0  0  0
 12 17  2  0  0  0  0
 17 18  1  0  0  0  0
 18 19  1  0  0  0  0
  1 20  1  0  0  0  0
  1 21  1  0  0  0  0
  1 22  1  0  0  0  0
  2 23  1  0  0  0  0
  2 24  1  0  0  0  0
  7 25  1  0  0  0  0
  7 26  1  0  0  0  0
  8 27  1  0  0  0  0
  8 28  1  0  0  0  0
  8 29  1  0  0  0  0
 10 30  1  0  0  0  0
 10 31  1  0  0  0  0
 15 32  1  0  0  0  0
 15 33  1  0  0  0  0
 16 34  1  0  0  0  0
 16 35  1  0  0  0  0
 16 36  1  0  0  0  0
 18 37  1  0  0  0  0
 18 38  1  0  0  0  0
 19 39  1  0  0  0  0
 19 40  1  0  0  0  0
 19 41  1  0  0  0  0
M  END
