41
 xtb: 6.7.1 (edcfbbe)
C            6.01403016941866        0.64121359275119       -0.33513160970709
C            4.63132594020827        1.24009692735721       -0.35781689276501
O            3.67755823549323        0.19666760499393       -0.77117298522216
P            2.43214855930885       -0.20794180507630        0.16515125913221
S            2.79526047000740       -0.51846489101974        2.05415429323440
O            1.82361569052392       -1.43484569471897       -0.67125276269262
C            2.18732259100574       -2.83055526396623       -0.37309995016111
C            3.59116742090114       -3.15364540612715       -0.82120181880195
S            1.08296324799697        1.36377920312847       -0.27105365743351
C           -0.07218594632116        1.23762793427658        1.14774325814131
S           -1.11359522048920       -0.27107887206275        1.28382108320216
P           -2.44307640213659       -0.06642280370783       -0.36168915558235
S           -1.88516974735291       -0.73317699910662       -2.10135077593188
O           -2.77979283015144        1.50240913253692       -0.25369593762329
C           -3.39664105296658        2.24764740256685       -1.36373385009385
C           -4.87071800926511        1.94817698399173       -1.47749556764349
O           -3.72626158026247       -0.89146796885668        0.15267570213311
C           -4.46717885170625       -0.50685663923464        1.37025664915636
C           -5.88957271728444       -0.96979868981996        1.19113446498916
H            6.27575701628222        0.22578094875401       -1.31244957507432
H            6.73785061487444        1.42412303281775       -0.08808536425550
H            6.08496613604048       -0.14795265625126        0.41903287431301
H            4.53863212333281        2.03870827395921       -1.09866919894227
H            4.34519979891885        1.62970106135808        0.62411356198985
H            2.04755694774965       -2.99811605958833        0.69913791606608
H            1.44279103862808       -3.40831478021608       -0.92454016174764
H            3.72302448940441       -2.93644022232151       -1.88494094295971
H            4.33739065272228       -2.59577927933789       -0.24721821469644
H            3.76950852660316       -4.22209374102703       -0.66202502619540
H           -0.70812032794807        2.12402333090700        1.09190859844470
H            0.50282703862638        1.26190494090165        2.07821691983050
H           -3.21381903678082        3.29175020838364       -1.10252595081831
H           -2.85390780438463        2.00660027591340       -2.28258667752695
H           -5.29981004975570        2.59360035039890       -2.25110121079200
H           -5.04939727770103        0.90812512881981       -1.76651764243294
H           -5.38568615409336        2.15352089472755       -0.53455492395784
H           -3.98313769144935       -1.00000460754207        2.21776695130384
H           -4.40763982145566        0.57741288097957        1.49852147105743
H           -6.36182276370515       -0.46900791035066        0.34113232049572
H           -5.93278217031552       -2.05193829606127        1.03810773115646
H           -6.45623273198075       -0.72671142348320        2.09555597918318
