 xtb: 6.7.1 (edcfbbe)
          04092509473D

 38 37  0     0  0            999 V2000
    5.1734   -2.3794   -1.7430 C   0  0  0  0  0  0  0  0  0  0  0  0
    4.5915   -1.0752   -1.2197 C   0  0  0  0  0  0  0  0  0  0  0  0
    3.1522   -1.0732   -1.2938 O   0  0  0  0  0  0  0  0  0  0  0  0
    2.4801   -1.6614   -0.3159 C   0  0  0  0  0  0  0  0  0  0  0  0
    2.9940   -2.2195    0.6256 O   0  0  0  0  0  0  0  0  0  0  0  0
    0.9802   -1.6181   -0.5513 C   0  0  0  0  0  0  0  0  0  0  0  0
    0.5300   -0.2374   -1.0104 C   0  0  0  0  0  0  0  0  0  0  0  0
    1.0303    0.0137   -1.9535 H   0  0  0  0  0  0  0  0  0  0  0  0
    0.9413    0.8381   -0.0219 C   0  0  0  0  0  0  0  0  0  0  0  0
    1.9167    0.7161    0.6837 O   0  0  0  0  0  0  0  0  0  0  0  0
    0.2048    1.9278   -0.1123 O   0  0  0  0  0  0  0  0  0  0  0  0
    0.6440    3.0982    0.6134 C   0  0  0  0  0  0  0  0  0  0  0  0
    0.1959    3.0787    2.0636 C   0  0  0  0  0  0  0  0  0  0  0  0
   -1.2377   -0.1819   -1.4450 S   0  0  0  0  0  0  0  0  0  0  0  0
   -2.1765    0.0961    0.4390 P   0  0  0  0  0  0  0  0  0  0  0  0
   -1.2197   -0.5055    2.0400 S   0  0  0  0  0  0  0  0  0  0  0  0
   -2.6195    1.6076    0.5468 O   0  0  0  0  0  0  0  0  0  0  0  0
   -3.3721    2.2643   -0.4938 C   0  0  0  0  0  0  0  0  0  0  0  0
   -3.5974   -0.5993    0.1882 O   0  0  0  0  0  0  0  0  0  0  0  0
   -3.7528   -2.0186    0.0748 C   0  0  0  0  0  0  0  0  0  0  0  0
    4.8529   -3.2086   -1.1166 H   0  0  0  0  0  0  0  0  0  0  0  0
    4.8449   -2.5555   -2.7636 H   0  0  0  0  0  0  0  0  0  0  0  0
    6.2567   -2.3207   -1.7201 H   0  0  0  0  0  0  0  0  0  0  0  0
    4.8952   -0.2291   -1.8365 H   0  0  0  0  0  0  0  0  0  0  0  0
    4.8827   -0.9091   -0.1785 H   0  0  0  0  0  0  0  0  0  0  0  0
    0.4937   -1.9012    0.3843 H   0  0  0  0  0  0  0  0  0  0  0  0
    0.7374   -2.3518   -1.3218 H   0  0  0  0  0  0  0  0  0  0  0  0
    1.7357    3.1400    0.5527 H   0  0  0  0  0  0  0  0  0  0  0  0
    0.1979    3.9300    0.0680 H   0  0  0  0  0  0  0  0  0  0  0  0
    0.6449    2.2353    2.5851 H   0  0  0  0  0  0  0  0  0  0  0  0
    0.5102    3.9987    2.5457 H   0  0  0  0  0  0  0  0  0  0  0  0
   -0.8856    2.9873    2.1257 H   0  0  0  0  0  0  0  0  0  0  0  0
   -4.3333    1.7718   -0.6262 H   0  0  0  0  0  0  0  0  0  0  0  0
   -2.8074    2.2432   -1.4254 H   0  0  0  0  0  0  0  0  0  0  0  0
   -3.5068    3.2850   -0.1460 H   0  0  0  0  0  0  0  0  0  0  0  0
   -4.8260   -2.1950    0.0750 H   0  0  0  0  0  0  0  0  0  0  0  0
   -3.2867   -2.5184    0.9250 H   0  0  0  0  0  0  0  0  0  0  0  0
   -3.3089   -2.3707   -0.8560 H   0  0  0  0  0  0  0  0  0  0  0  0
  1  2  1  0  0  0  0
  2  3  1  0  0  0  0
  3  4  1  0  0  0  0
  4  5  2  0  0  0  0
  4  6  1  0  0  0  0
  6  7  1  0  0  0  0
  7  8  1  0  0  0  0
  7  9  1  0  0  0  0
  9 10  2  0  0  0  0
  9 11  1  0  0  0  0
 11 12  1  0  0  0  0
 12 13  1  0  0  0  0
  7 14  1  0  0  0  0
 14 15  1  0  0  0  0
 15 16  2  0  0  0  0
 15 17  2  0  0  0  0
 17 18  1  0  0  0  0
 15 19  1  0  0  0  0
 19 20  1  0  0  0  0
  1 21  1  0  0  0  0
  1 22  1  0  0  0  0
  1 23  1  0  0  0  0
  2 24  1  0  0  0  0
  2 25  1  0  0  0  0
  6 26  1  0  0  0  0
  6 27  1  0  0  0  0
 12 28  1  0  0  0  0
 12 29  1  0  0  0  0
 13 30  1  0  0  0  0
 13 31  1  0  0  0  0
 13 32  1  0  0  0  0
 18 33  1  0  0  0  0
 18 34  1  0  0  0  0
 18 35  1  0  0  0  0
 20 36  1  0  0  0  0
 20 37  1  0  0  0  0
 20 38  1  0  0  0  0
M  END
