 xtb: 6.7.1 (edcfbbe)
          04092505213D

 41 40  0     0  0            999 V2000
    3.9749    2.1836    0.2497 C   0  0  0  0  0  0  0  0  0  0  0  0
    2.5925    2.1346    0.8642 C   0  0  0  0  0  0  0  0  0  0  0  0
    1.8400    0.9895    0.4109 O   0  0  0  0  0  0  0  0  0  0  0  0
    2.2403   -0.4936    0.7988 P   0  0  0  0  0  0  0  0  0  0  0  0
    2.9922   -0.7621    2.5856 S   0  0  0  0  0  0  0  0  0  0  0  0
    3.2083   -0.8898   -0.4112 O   0  0  0  0  0  0  0  0  0  0  0  0
    4.0978   -2.0134   -0.3293 C   0  0  0  0  0  0  0  0  0  0  0  0
    3.3517   -3.3324   -0.3701 C   0  0  0  0  0  0  0  0  0  0  0  0
    0.4010   -1.4510    0.3748 S   0  0  0  0  0  0  0  0  0  0  0  0
    0.1610   -0.8062   -1.3111 C   0  0  0  0  0  0  0  0  0  0  0  0
   -0.6378    0.8131   -1.3633 S   0  0  0  0  0  0  0  0  0  0  0  0
   -2.6231    0.1921   -0.8614 P   0  0  0  0  0  0  0  0  0  0  0  0
   -2.9839   -1.7248   -0.9945 S   0  0  0  0  0  0  0  0  0  0  0  0
   -3.5390    1.0311   -1.8239 O   0  0  0  0  0  0  0  0  0  0  0  0
   -3.4053    2.4540   -2.0707 C   0  0  0  0  0  0  0  0  0  0  0  0
   -4.2046    3.2678   -1.0744 C   0  0  0  0  0  0  0  0  0  0  0  0
   -2.9523    0.8399    0.5607 O   0  0  0  0  0  0  0  0  0  0  0  0
   -2.4820    0.3018    1.8072 C   0  0  0  0  0  0  0  0  0  0  0  0
   -1.3350    1.1339    2.3487 C   0  0  0  0  0  0  0  0  0  0  0  0
    4.5709    1.3466    0.6110 H   0  0  0  0  0  0  0  0  0  0  0  0
    3.9076    2.1286   -0.8336 H   0  0  0  0  0  0  0  0  0  0  0  0
    4.4616    3.1110    0.5352 H   0  0  0  0  0  0  0  0  0  0  0  0
    1.9806    2.9826    0.5541 H   0  0  0  0  0  0  0  0  0  0  0  0
    2.6559    2.0947    1.9560 H   0  0  0  0  0  0  0  0  0  0  0  0
    4.7570   -1.8952   -1.1904 H   0  0  0  0  0  0  0  0  0  0  0  0
    4.6750   -1.9314    0.5974 H   0  0  0  0  0  0  0  0  0  0  0  0
    2.7299   -3.3950   -1.2598 H   0  0  0  0  0  0  0  0  0  0  0  0
    4.0659   -4.1495   -0.3751 H   0  0  0  0  0  0  0  0  0  0  0  0
    2.7156   -3.4267    0.5100 H   0  0  0  0  0  0  0  0  0  0  0  0
   -0.4723   -1.5333   -1.8184 H   0  0  0  0  0  0  0  0  0  0  0  0
    1.1261   -0.6962   -1.7983 H   0  0  0  0  0  0  0  0  0  0  0  0
   -2.3444    2.7172   -2.0401 H   0  0  0  0  0  0  0  0  0  0  0  0
   -3.7877    2.5798   -3.0851 H   0  0  0  0  0  0  0  0  0  0  0  0
   -5.2456    2.9567   -1.0897 H   0  0  0  0  0  0  0  0  0  0  0  0
   -3.8142    3.1298   -0.0702 H   0  0  0  0  0  0  0  0  0  0  0  0
   -4.1403    4.3176   -1.3434 H   0  0  0  0  0  0  0  0  0  0  0  0
   -3.3433    0.3388    2.4771 H   0  0  0  0  0  0  0  0  0  0  0  0
   -2.1855   -0.7429    1.6634 H   0  0  0  0  0  0  0  0  0  0  0  0
   -0.4918    1.1200    1.6610 H   0  0  0  0  0  0  0  0  0  0  0  0
   -1.6514    2.1632    2.4906 H   0  0  0  0  0  0  0  0  0  0  0  0
   -1.0131    0.7211    3.3000 H   0  0  0  0  0  0  0  0  0  0  0  0
  1  2  1  0  0  0  0
  2  3  1  0  0  0  0
  3  4  2  0  0  0  0
  4  5  2  0  0  0  0
  4  6  1  0  0  0  0
  6  7  1  0  0  0  0
  7  8  1  0  0  0  0
  4  9  1  0  0  0  0
  9 10  1  0  0  0  0
 10 11  1  0  0  0  0
 11 12  1  0  0  0  0
 12 13  2  0  0  0  0
 12 14  2  0  0  0  0
 14 15  1  0  0  0  0
 15 16  1  0  0  0  0
 12 17  2  0  0  0  0
 17 18  1  0  0  0  0
 18 19  1  0  0  0  0
  1 20  1  0  0  0  0
  1 21  1  0  0  0  0
  1 22  1  0  0  0  0
  2 23  1  0  0  0  0
  2 24  1  0  0  0  0
  7 25  1  0  0  0  0
  7 26  1  0  0  0  0
  8 27  1  0  0  0  0
  8 28  1  0  0  0  0
  8 29  1  0  0  0  0
 10 30  1  0  0  0  0
 10 31  1  0  0  0  0
 15 32  1  0  0  0  0
 15 33  1  0  0  0  0
 16 34  1  0  0  0  0
 16 35  1  0  0  0  0
 16 36  1  0  0  0  0
 18 37  1  0  0  0  0
 18 38  1  0  0  0  0
 19 39  1  0  0  0  0
 19 40  1  0  0  0  0
 19 41  1  0  0  0  0
M  END
