 xtb: 6.7.1 (edcfbbe)
          04092514023D

 41 40  0     0  0            999 V2000
    4.6530   -1.8611   -0.7565 C   0  0  0  0  0  0  0  0  0  0  0  0
    4.7611   -0.3751   -0.4797 C   0  0  0  0  0  0  0  0  0  0  0  0
    3.6697    0.1212    0.3155 O   0  0  0  0  0  0  0  0  0  0  0  0
    2.1850    0.2840   -0.2333 P   0  0  0  0  0  0  0  0  0  0  0  0
    2.0458    0.7936   -2.1235 S   0  0  0  0  0  0  0  0  0  0  0  0
    1.5749    1.2974    0.8260 O   0  0  0  0  0  0  0  0  0  0  0  0
    1.5862    2.7230    0.6155 C   0  0  0  0  0  0  0  0  0  0  0  0
    2.9819    3.3065    0.6827 C   0  0  0  0  0  0  0  0  0  0  0  0
    1.2398   -1.4992    0.3762 S   0  0  0  0  0  0  0  0  0  0  0  0
   -0.0643   -1.6362   -0.9093 C   0  0  0  0  0  0  0  0  0  0  0  0
   -1.6784   -2.0815   -0.2318 S   0  0  0  0  0  0  0  0  0  0  0  0
   -2.4620   -0.1609    0.2571 P   0  0  0  0  0  0  0  0  0  0  0  0
   -1.5516    1.3582   -0.6003 S   0  0  0  0  0  0  0  0  0  0  0  0
   -2.5317   -0.1179    1.8398 O   0  0  0  0  0  0  0  0  0  0  0  0
   -1.3398   -0.0907    2.6474 C   0  0  0  0  0  0  0  0  0  0  0  0
   -1.7388    0.3082    4.0540 C   0  0  0  0  0  0  0  0  0  0  0  0
   -4.0192   -0.2834    0.0402 O   0  0  0  0  0  0  0  0  0  0  0  0
   -4.6797    0.0785   -1.1871 C   0  0  0  0  0  0  0  0  0  0  0  0
   -4.3538   -0.8689   -2.3243 C   0  0  0  0  0  0  0  0  0  0  0  0
    4.5354   -2.4143    0.1716 H   0  0  0  0  0  0  0  0  0  0  0  0
    3.7961   -2.0612   -1.3979 H   0  0  0  0  0  0  0  0  0  0  0  0
    5.5549   -2.1934   -1.2618 H   0  0  0  0  0  0  0  0  0  0  0  0
    4.7885    0.1872   -1.4187 H   0  0  0  0  0  0  0  0  0  0  0  0
    5.6445   -0.1441    0.1177 H   0  0  0  0  0  0  0  0  0  0  0  0
    1.1196    2.9303   -0.3537 H   0  0  0  0  0  0  0  0  0  0  0  0
    0.9481    3.1106    1.4113 H   0  0  0  0  0  0  0  0  0  0  0  0
    2.9169    4.3885    0.6175 H   0  0  0  0  0  0  0  0  0  0  0  0
    3.4628    3.0275    1.6165 H   0  0  0  0  0  0  0  0  0  0  0  0
    3.5815    2.9391   -0.1491 H   0  0  0  0  0  0  0  0  0  0  0  0
    0.2090   -2.4427   -1.5839 H   0  0  0  0  0  0  0  0  0  0  0  0
   -0.1330   -0.6816   -1.4376 H   0  0  0  0  0  0  0  0  0  0  0  0
   -0.8870   -1.0876    2.6313 H   0  0  0  0  0  0  0  0  0  0  0  0
   -0.6310    0.6254    2.2153 H   0  0  0  0  0  0  0  0  0  0  0  0
   -2.4624   -0.4000    4.4468 H   0  0  0  0  0  0  0  0  0  0  0  0
   -0.8564    0.3111    4.6855 H   0  0  0  0  0  0  0  0  0  0  0  0
   -2.1838    1.2993    4.0508 H   0  0  0  0  0  0  0  0  0  0  0  0
   -5.7394    0.0416   -0.9291 H   0  0  0  0  0  0  0  0  0  0  0  0
   -4.3975    1.1039   -1.4459 H   0  0  0  0  0  0  0  0  0  0  0  0
   -4.9559   -0.6052   -3.1886 H   0  0  0  0  0  0  0  0  0  0  0  0
   -3.3011   -0.7863   -2.5915 H   0  0  0  0  0  0  0  0  0  0  0  0
   -4.5654   -1.8955   -2.0372 H   0  0  0  0  0  0  0  0  0  0  0  0
  1  2  1  0  0  0  0
  2  3  1  0  0  0  0
  3  4  2  0  0  0  0
  4  5  2  0  0  0  0
  4  6  2  0  0  0  0
  6  7  1  0  0  0  0
  7  8  1  0  0  0  0
  4  9  1  0  0  0  0
  9 10  1  0  0  0  0
 10 11  1  0  0  0  0
 11 12  1  0  0  0  0
 12 13  2  0  0  0  0
 12 14  2  0  0  0  0
 14 15  1  0  0  0  0
 15 16  1  0  0  0  0
 12 17  2  0  0  0  0
 17 18  1  0  0  0  0
 18 19  1  0  0  0  0
  1 20  1  0  0  0  0
  1 21  1  0  0  0  0
  1 22  1  0  0  0  0
  2 23  1  0  0  0  0
  2 24  1  0  0  0  0
  7 25  1  0  0  0  0
  7 26  1  0  0  0  0
  8 27  1  0  0  0  0
  8 28  1  0  0  0  0
  8 29  1  0  0  0  0
 10 30  1  0  0  0  0
 10 31  1  0  0  0  0
 15 32  1  0  0  0  0
 15 33  1  0  0  0  0
 16 34  1  0  0  0  0
 16 35  1  0  0  0  0
 16 36  1  0  0  0  0
 18 37  1  0  0  0  0
 18 38  1  0  0  0  0
 19 39  1  0  0  0  0
 19 40  1  0  0  0  0
 19 41  1  0  0  0  0
M  END
