 xtb: 6.7.1 (edcfbbe)
          04092505213D

 41 40  0     0  0            999 V2000
    1.3618   -0.3707   -3.0375 C   0  0  0  0  0  0  0  0  0  0  0  0
    2.4278    0.2821   -2.1806 C   0  0  0  0  0  0  0  0  0  0  0  0
    2.8186   -0.5915   -1.1075 O   0  0  0  0  0  0  0  0  0  0  0  0
    2.3305   -0.4434    0.4006 P   0  0  0  0  0  0  0  0  0  0  0  0
    2.4339    1.3849    1.1136 S   0  0  0  0  0  0  0  0  0  0  0  0
    3.2529   -1.5211    1.1033 O   0  0  0  0  0  0  0  0  0  0  0  0
    4.6556   -1.2741    1.3563 C   0  0  0  0  0  0  0  0  0  0  0  0
    4.8642   -0.8524    2.7973 C   0  0  0  0  0  0  0  0  0  0  0  0
    0.5119   -1.4820    0.5674 S   0  0  0  0  0  0  0  0  0  0  0  0
   -0.3317   -0.3931    1.7752 C   0  0  0  0  0  0  0  0  0  0  0  0
   -2.1044   -0.3359    1.4875 S   0  0  0  0  0  0  0  0  0  0  0  0
   -2.0542    0.5159   -0.4723 P   0  0  0  0  0  0  0  0  0  0  0  0
   -0.6505    1.8347   -0.8214 S   0  0  0  0  0  0  0  0  0  0  0  0
   -3.5657    0.9490   -0.6937 O   0  0  0  0  0  0  0  0  0  0  0  0
   -4.3523    1.7298    0.2260 C   0  0  0  0  0  0  0  0  0  0  0  0
   -3.6846    3.0339    0.6081 C   0  0  0  0  0  0  0  0  0  0  0  0
   -1.9039   -0.6808   -1.4864 O   0  0  0  0  0  0  0  0  0  0  0  0
   -2.7959   -1.8229   -1.5170 C   0  0  0  0  0  0  0  0  0  0  0  0
   -3.7986   -1.6788   -2.6434 C   0  0  0  0  0  0  0  0  0  0  0  0
    1.6980   -1.3495   -3.3678 H   0  0  0  0  0  0  0  0  0  0  0  0
    0.4371   -0.4841   -2.4748 H   0  0  0  0  0  0  0  0  0  0  0  0
    1.1670    0.2590   -3.8997 H   0  0  0  0  0  0  0  0  0  0  0  0
    2.0753    1.2327   -1.7658 H   0  0  0  0  0  0  0  0  0  0  0  0
    3.3430    0.4527   -2.7511 H   0  0  0  0  0  0  0  0  0  0  0  0
    5.1467   -2.2245    1.1414 H   0  0  0  0  0  0  0  0  0  0  0  0
    5.0184   -0.5092    0.6647 H   0  0  0  0  0  0  0  0  0  0  0  0
    5.9266   -0.7373    2.9870 H   0  0  0  0  0  0  0  0  0  0  0  0
    4.3644    0.0955    2.9855 H   0  0  0  0  0  0  0  0  0  0  0  0
    4.4565   -1.6042    3.4671 H   0  0  0  0  0  0  0  0  0  0  0  0
    0.0938    0.6110    1.6852 H   0  0  0  0  0  0  0  0  0  0  0  0
   -0.1958   -0.7920    2.7774 H   0  0  0  0  0  0  0  0  0  0  0  0
   -5.2835    1.9041   -0.3159 H   0  0  0  0  0  0  0  0  0  0  0  0
   -4.5440    1.1193    1.1124 H   0  0  0  0  0  0  0  0  0  0  0  0
   -3.4358    3.6089   -0.2809 H   0  0  0  0  0  0  0  0  0  0  0  0
   -4.3541    3.6131    1.2357 H   0  0  0  0  0  0  0  0  0  0  0  0
   -2.7644    2.8391    1.1578 H   0  0  0  0  0  0  0  0  0  0  0  0
   -2.1391   -2.6813   -1.6695 H   0  0  0  0  0  0  0  0  0  0  0  0
   -3.2949   -1.9112   -0.5481 H   0  0  0  0  0  0  0  0  0  0  0  0
   -4.4227   -0.8041   -2.4810 H   0  0  0  0  0  0  0  0  0  0  0  0
   -3.2804   -1.5667   -3.5917 H   0  0  0  0  0  0  0  0  0  0  0  0
   -4.4234   -2.5656   -2.6780 H   0  0  0  0  0  0  0  0  0  0  0  0
  1  2  1  0  0  0  0
  2  3  1  0  0  0  0
  3  4  2  0  0  0  0
  4  5  2  0  0  0  0
  4  6  2  0  0  0  0
  6  7  1  0  0  0  0
  7  8  1  0  0  0  0
  4  9  1  0  0  0  0
  9 10  1  0  0  0  0
 10 11  1  0  0  0  0
 11 12  1  0  0  0  0
 12 13  2  0  0  0  0
 12 14  2  0  0  0  0
 14 15  1  0  0  0  0
 15 16  1  0  0  0  0
 12 17  2  0  0  0  0
 17 18  1  0  0  0  0
 18 19  1  0  0  0  0
  1 20  1  0  0  0  0
  1 21  1  0  0  0  0
  1 22  1  0  0  0  0
  2 23  1  0  0  0  0
  2 24  1  0  0  0  0
  7 25  1  0  0  0  0
  7 26  1  0  0  0  0
  8 27  1  0  0  0  0
  8 28  1  0  0  0  0
  8 29  1  0  0  0  0
 10 30  1  0  0  0  0
 10 31  1  0  0  0  0
 15 32  1  0  0  0  0
 15 33  1  0  0  0  0
 16 34  1  0  0  0  0
 16 35  1  0  0  0  0
 16 36  1  0  0  0  0
 18 37  1  0  0  0  0
 18 38  1  0  0  0  0
 19 39  1  0  0  0  0
 19 40  1  0  0  0  0
 19 41  1  0  0  0  0
M  END
