 xtb: 6.7.1 (edcfbbe)
          04092507313D

 38 37  0     0  0            999 V2000
    3.7966   -3.6403   -0.2791 C   0  0  0  0  0  0  0  0  0  0  0  0
    4.3602   -2.3766   -0.9090 C   0  0  0  0  0  0  0  0  0  0  0  0
    3.3659   -1.7247   -1.7254 O   0  0  0  0  0  0  0  0  0  0  0  0
    2.5169   -0.9073   -1.1448 C   0  0  0  0  0  0  0  0  0  0  0  0
    2.5224   -0.6262    0.0360 O   0  0  0  0  0  0  0  0  0  0  0  0
    1.5290   -0.3220   -2.1323 C   0  0  0  0  0  0  0  0  0  0  0  0
    0.3802    0.3269   -1.3718 C   0  0  0  0  0  0  0  0  0  0  0  0
   -0.2539    0.9065   -2.0502 H   0  0  0  0  0  0  0  0  0  0  0  0
    0.9341    1.2857   -0.3280 C   0  0  0  0  0  0  0  0  0  0  0  0
    1.7795    2.1070   -0.6009 O   0  0  0  0  0  0  0  0  0  0  0  0
    0.3284    1.1729    0.8355 O   0  0  0  0  0  0  0  0  0  0  0  0
    0.7487    2.0233    1.9218 C   0  0  0  0  0  0  0  0  0  0  0  0
    1.6939    1.2680    2.8401 C   0  0  0  0  0  0  0  0  0  0  0  0
   -0.6662   -0.9635   -0.6064 S   0  0  0  0  0  0  0  0  0  0  0  0
   -2.1442    0.2987    0.1941 P   0  0  0  0  0  0  0  0  0  0  0  0
   -2.3958    2.1180   -0.4813 S   0  0  0  0  0  0  0  0  0  0  0  0
   -3.3657   -0.6924   -0.1615 O   0  0  0  0  0  0  0  0  0  0  0  0
   -4.7188   -0.2849    0.0766 C   0  0  0  0  0  0  0  0  0  0  0  0
   -2.0715    0.2827    1.7903 O   0  0  0  0  0  0  0  0  0  0  0  0
   -1.8083   -0.9384    2.5032 C   0  0  0  0  0  0  0  0  0  0  0  0
    2.9800   -3.3893    0.3941 H   0  0  0  0  0  0  0  0  0  0  0  0
    3.4254   -4.3088   -1.0506 H   0  0  0  0  0  0  0  0  0  0  0  0
    4.5783   -4.1399    0.2836 H   0  0  0  0  0  0  0  0  0  0  0  0
    5.1724   -2.6020   -1.5999 H   0  0  0  0  0  0  0  0  0  0  0  0
    4.6963   -1.6747   -0.1407 H   0  0  0  0  0  0  0  0  0  0  0  0
    1.1732   -1.1004   -2.8056 H   0  0  0  0  0  0  0  0  0  0  0  0
    2.0516    0.4409   -2.7140 H   0  0  0  0  0  0  0  0  0  0  0  0
    1.2313    2.9050    1.4912 H   0  0  0  0  0  0  0  0  0  0  0  0
   -0.1750    2.3084    2.4288 H   0  0  0  0  0  0  0  0  0  0  0  0
    2.5327    0.8845    2.2634 H   0  0  0  0  0  0  0  0  0  0  0  0
    2.0612    1.9416    3.6069 H   0  0  0  0  0  0  0  0  0  0  0  0
    1.1818    0.4327    3.3087 H   0  0  0  0  0  0  0  0  0  0  0  0
   -4.9121    0.6711   -0.4128 H   0  0  0  0  0  0  0  0  0  0  0  0
   -4.9072   -0.1894    1.1463 H   0  0  0  0  0  0  0  0  0  0  0  0
   -5.3379   -1.0667   -0.3557 H   0  0  0  0  0  0  0  0  0  0  0  0
   -2.0706   -0.7316    3.5377 H   0  0  0  0  0  0  0  0  0  0  0  0
   -0.7517   -1.1900    2.4148 H   0  0  0  0  0  0  0  0  0  0  0  0
   -2.4129   -1.7533    2.1042 H   0  0  0  0  0  0  0  0  0  0  0  0
  1  2  1  0  0  0  0
  2  3  1  0  0  0  0
  3  4  4  0  0  0  0
  4  5  2  0  0  0  0
  4  6  1  0  0  0  0
  6  7  1  0  0  0  0
  7  8  1  0  0  0  0
  7  9  1  0  0  0  0
  9 10  2  0  0  0  0
  9 11  1  0  0  0  0
 11 12  1  0  0  0  0
 12 13  1  0  0  0  0
  7 14  1  0  0  0  0
 14 15  1  0  0  0  0
 15 16  2  0  0  0  0
 15 17  1  0  0  0  0
 17 18  1  0  0  0  0
 15 19  1  0  0  0  0
 19 20  1  0  0  0  0
  1 21  1  0  0  0  0
  1 22  1  0  0  0  0
  1 23  1  0  0  0  0
  2 24  1  0  0  0  0
  2 25  1  0  0  0  0
  6 26  1  0  0  0  0
  6 27  1  0  0  0  0
 12 28  1  0  0  0  0
 12 29  1  0  0  0  0
 13 30  1  0  0  0  0
 13 31  1  0  0  0  0
 13 32  1  0  0  0  0
 18 33  1  0  0  0  0
 18 34  1  0  0  0  0
 18 35  1  0  0  0  0
 20 36  1  0  0  0  0
 20 37  1  0  0  0  0
 20 38  1  0  0  0  0
M  END
