 xtb: 6.7.1 (edcfbbe)
          04092505213D

 41 40  0     0  0            999 V2000
    4.1811    2.4832    0.5666 C   0  0  0  0  0  0  0  0  0  0  0  0
    4.2577    1.5328   -0.6117 C   0  0  0  0  0  0  0  0  0  0  0  0
    3.5943    0.2866   -0.3271 O   0  0  0  0  0  0  0  0  0  0  0  0
    2.0034    0.1630   -0.3014 P   0  0  0  0  0  0  0  0  0  0  0  0
    1.0347    1.4352   -1.4241 S   0  0  0  0  0  0  0  0  0  0  0  0
    1.5646    0.2781    1.2223 O   0  0  0  0  0  0  0  0  0  0  0  0
    2.2783   -0.3944    2.2900 C   0  0  0  0  0  0  0  0  0  0  0  0
    1.4784   -1.5651    2.8246 C   0  0  0  0  0  0  0  0  0  0  0  0
    1.9408   -1.8800   -0.8338 S   0  0  0  0  0  0  0  0  0  0  0  0
    0.1746   -2.0132   -1.2109 C   0  0  0  0  0  0  0  0  0  0  0  0
   -0.8970   -1.9286    0.2639 S   0  0  0  0  0  0  0  0  0  0  0  0
   -1.9823   -0.1838   -0.1440 P   0  0  0  0  0  0  0  0  0  0  0  0
   -2.2786    0.2563   -2.0379 S   0  0  0  0  0  0  0  0  0  0  0  0
   -1.2716    0.8855    0.7757 O   0  0  0  0  0  0  0  0  0  0  0  0
   -1.6605    2.2777    0.7314 C   0  0  0  0  0  0  0  0  0  0  0  0
   -0.7238    3.0430    1.6403 C   0  0  0  0  0  0  0  0  0  0  0  0
   -3.3351   -0.4043    0.6660 O   0  0  0  0  0  0  0  0  0  0  0  0
   -4.4170   -1.2039    0.1482 C   0  0  0  0  0  0  0  0  0  0  0  0
   -5.7009   -0.7453    0.8101 C   0  0  0  0  0  0  0  0  0  0  0  0
    3.1394    2.7330    0.7675 H   0  0  0  0  0  0  0  0  0  0  0  0
    4.6142    2.0262    1.4525 H   0  0  0  0  0  0  0  0  0  0  0  0
    4.7219    3.3941    0.3302 H   0  0  0  0  0  0  0  0  0  0  0  0
    5.2850    1.2420   -0.8349 H   0  0  0  0  0  0  0  0  0  0  0  0
    3.7965    1.9797   -1.4980 H   0  0  0  0  0  0  0  0  0  0  0  0
    3.2535   -0.7191    1.9174 H   0  0  0  0  0  0  0  0  0  0  0  0
    2.4108    0.3724    3.0556 H   0  0  0  0  0  0  0  0  0  0  0  0
    1.4027   -2.3562    2.0826 H   0  0  0  0  0  0  0  0  0  0  0  0
    1.9738   -1.9543    3.7085 H   0  0  0  0  0  0  0  0  0  0  0  0
    0.4746   -1.2422    3.0880 H   0  0  0  0  0  0  0  0  0  0  0  0
    0.0413   -2.9938   -1.6604 H   0  0  0  0  0  0  0  0  0  0  0  0
   -0.1256   -1.2214   -1.9029 H   0  0  0  0  0  0  0  0  0  0  0  0
   -1.5826    2.6217   -0.3059 H   0  0  0  0  0  0  0  0  0  0  0  0
   -2.6998    2.3548    1.0604 H   0  0  0  0  0  0  0  0  0  0  0  0
    0.2980    2.9248    1.2888 H   0  0  0  0  0  0  0  0  0  0  0  0
   -0.9901    4.0946    1.6236 H   0  0  0  0  0  0  0  0  0  0  0  0
   -0.7952    2.6616    2.6544 H   0  0  0  0  0  0  0  0  0  0  0  0
   -4.4566   -1.0743   -0.9388 H   0  0  0  0  0  0  0  0  0  0  0  0
   -4.2005   -2.2499    0.3786 H   0  0  0  0  0  0  0  0  0  0  0  0
   -5.6125   -0.8329    1.8890 H   0  0  0  0  0  0  0  0  0  0  0  0
   -5.9057    0.2908    0.5551 H   0  0  0  0  0  0  0  0  0  0  0  0
   -6.5200   -1.3666    0.4635 H   0  0  0  0  0  0  0  0  0  0  0  0
  1  2  1  0  0  0  0
  2  3  1  0  0  0  0
  3  4  1  0  0  0  0
  4  5  2  0  0  0  0
  4  6  2  0  0  0  0
  6  7  1  0  0  0  0
  7  8  1  0  0  0  0
  4  9  1  0  0  0  0
  9 10  1  0  0  0  0
 10 11  1  0  0  0  0
 11 12  1  0  0  0  0
 12 13  2  0  0  0  0
 12 14  2  0  0  0  0
 14 15  1  0  0  0  0
 15 16  1  0  0  0  0
 12 17  2  0  0  0  0
 17 18  1  0  0  0  0
 18 19  1  0  0  0  0
  1 20  1  0  0  0  0
  1 21  1  0  0  0  0
  1 22  1  0  0  0  0
  2 23  1  0  0  0  0
  2 24  1  0  0  0  0
  7 25  1  0  0  0  0
  7 26  1  0  0  0  0
  8 27  1  0  0  0  0
  8 28  1  0  0  0  0
  8 29  1  0  0  0  0
 10 30  1  0  0  0  0
 10 31  1  0  0  0  0
 15 32  1  0  0  0  0
 15 33  1  0  0  0  0
 16 34  1  0  0  0  0
 16 35  1  0  0  0  0
 16 36  1  0  0  0  0
 18 37  1  0  0  0  0
 18 38  1  0  0  0  0
 19 39  1  0  0  0  0
 19 40  1  0  0  0  0
 19 41  1  0  0  0  0
M  END
