 xtb: 6.7.1 (edcfbbe)
          04092507313D

 38 37  0     0  0            999 V2000
    2.1004   -3.9287    0.3623 C   0  0  0  0  0  0  0  0  0  0  0  0
    2.8233   -2.5981    0.2786 C   0  0  0  0  0  0  0  0  0  0  0  0
    2.2874   -1.8547   -0.8330 O   0  0  0  0  0  0  0  0  0  0  0  0
    2.1338   -0.5570   -0.7337 C   0  0  0  0  0  0  0  0  0  0  0  0
    2.4103    0.1137    0.2423 O   0  0  0  0  0  0  0  0  0  0  0  0
    1.5844    0.0504   -2.0115 C   0  0  0  0  0  0  0  0  0  0  0  0
    0.3750    0.9419   -1.7133 C   0  0  0  0  0  0  0  0  0  0  0  0
    0.2111    1.6340   -2.5424 H   0  0  0  0  0  0  0  0  0  0  0  0
    0.5760    1.7356   -0.4358 C   0  0  0  0  0  0  0  0  0  0  0  0
   -0.0988    1.5436    0.5608 O   0  0  0  0  0  0  0  0  0  0  0  0
    1.4899    2.6513   -0.5676 O   0  0  0  0  0  0  0  0  0  0  0  0
    1.8364    3.4473    0.5865 C   0  0  0  0  0  0  0  0  0  0  0  0
    0.8337    4.5676    0.8061 C   0  0  0  0  0  0  0  0  0  0  0  0
   -1.1723   -0.0087   -1.5750 S   0  0  0  0  0  0  0  0  0  0  0  0
   -1.5354   -0.3932    0.4936 P   0  0  0  0  0  0  0  0  0  0  0  0
   -0.2150   -1.1807    1.7104 S   0  0  0  0  0  0  0  0  0  0  0  0
   -2.4594    0.7425    1.1056 O   0  0  0  0  0  0  0  0  0  0  0  0
   -3.7218    1.1095    0.5187 C   0  0  0  0  0  0  0  0  0  0  0  0
   -2.7033   -1.4804    0.2094 O   0  0  0  0  0  0  0  0  0  0  0  0
   -2.4146   -2.8160   -0.1997 C   0  0  0  0  0  0  0  0  0  0  0  0
    2.5689   -4.5417    1.1245 H   0  0  0  0  0  0  0  0  0  0  0  0
    1.0610   -3.7642    0.6339 H   0  0  0  0  0  0  0  0  0  0  0  0
    2.1468   -4.4380   -0.5953 H   0  0  0  0  0  0  0  0  0  0  0  0
    3.8909   -2.7334    0.0854 H   0  0  0  0  0  0  0  0  0  0  0  0
    2.6856   -2.0100    1.1910 H   0  0  0  0  0  0  0  0  0  0  0  0
    1.3113   -0.7386   -2.7107 H   0  0  0  0  0  0  0  0  0  0  0  0
    2.3761    0.6690   -2.4396 H   0  0  0  0  0  0  0  0  0  0  0  0
    1.8881    2.7831    1.4538 H   0  0  0  0  0  0  0  0  0  0  0  0
    2.8267    3.8343    0.3479 H   0  0  0  0  0  0  0  0  0  0  0  0
    0.7500    5.1767   -0.0896 H   0  0  0  0  0  0  0  0  0  0  0  0
   -0.1425    4.1558    1.0530 H   0  0  0  0  0  0  0  0  0  0  0  0
    1.1697    5.1870    1.6310 H   0  0  0  0  0  0  0  0  0  0  0  0
   -3.6052    1.2872   -0.5507 H   0  0  0  0  0  0  0  0  0  0  0  0
   -4.0159    2.0214    1.0322 H   0  0  0  0  0  0  0  0  0  0  0  0
   -4.4493    0.3171    0.6852 H   0  0  0  0  0  0  0  0  0  0  0  0
   -3.3387   -3.3721   -0.0642 H   0  0  0  0  0  0  0  0  0  0  0  0
   -1.6243   -3.2340    0.4270 H   0  0  0  0  0  0  0  0  0  0  0  0
   -2.1079   -2.8289   -1.2456 H   0  0  0  0  0  0  0  0  0  0  0  0
  1  2  1  0  0  0  0
  2  3  1  0  0  0  0
  3  4  4  0  0  0  0
  4  5  2  0  0  0  0
  4  6  1  0  0  0  0
  6  7  1  0  0  0  0
  7  8  1  0  0  0  0
  7  9  1  0  0  0  0
  9 10  2  0  0  0  0
  9 11  4  0  0  0  0
 11 12  1  0  0  0  0
 12 13  1  0  0  0  0
  7 14  1  0  0  0  0
 14 15  1  0  0  0  0
 15 16  2  0  0  0  0
 15 17  2  0  0  0  0
 17 18  1  0  0  0  0
 15 19  1  0  0  0  0
 19 20  1  0  0  0  0
  1 21  1  0  0  0  0
  1 22  1  0  0  0  0
  1 23  1  0  0  0  0
  2 24  1  0  0  0  0
  2 25  1  0  0  0  0
  6 26  1  0  0  0  0
  6 27  1  0  0  0  0
 12 28  1  0  0  0  0
 12 29  1  0  0  0  0
 13 30  1  0  0  0  0
 13 31  1  0  0  0  0
 13 32  1  0  0  0  0
 18 33  1  0  0  0  0
 18 34  1  0  0  0  0
 18 35  1  0  0  0  0
 20 36  1  0  0  0  0
 20 37  1  0  0  0  0
 20 38  1  0  0  0  0
M  END
