 xtb: 6.7.1 (edcfbbe)
          04092505213D

 41 40  0     0  0            999 V2000
    2.7064    3.0199   -0.0624 C   0  0  0  0  0  0  0  0  0  0  0  0
    3.0369    1.6123   -0.5206 C   0  0  0  0  0  0  0  0  0  0  0  0
    3.1601    0.7186    0.5997 O   0  0  0  0  0  0  0  0  0  0  0  0
    1.9486   -0.1145    1.1995 P   0  0  0  0  0  0  0  0  0  0  0  0
    0.4547    0.8897    1.9682 S   0  0  0  0  0  0  0  0  0  0  0  0
    2.6396   -0.9553    2.3383 O   0  0  0  0  0  0  0  0  0  0  0  0
    3.5494   -2.0702    2.1736 C   0  0  0  0  0  0  0  0  0  0  0  0
    4.7570   -1.7379    1.3244 C   0  0  0  0  0  0  0  0  0  0  0  0
    1.4730   -1.4777   -0.3748 S   0  0  0  0  0  0  0  0  0  0  0  0
   -0.2228   -1.8999    0.1245 C   0  0  0  0  0  0  0  0  0  0  0  0
   -1.3793   -1.9037   -1.2768 S   0  0  0  0  0  0  0  0  0  0  0  0
   -2.0830    0.0807   -1.1777 P   0  0  0  0  0  0  0  0  0  0  0  0
   -3.4850    0.5725   -2.4517 S   0  0  0  0  0  0  0  0  0  0  0  0
   -0.7048    0.8597   -1.3216 O   0  0  0  0  0  0  0  0  0  0  0  0
   -0.6923    2.2493   -1.7150 C   0  0  0  0  0  0  0  0  0  0  0  0
   -1.3014    3.1452   -0.6576 C   0  0  0  0  0  0  0  0  0  0  0  0
   -2.4496    0.3260    0.3544 O   0  0  0  0  0  0  0  0  0  0  0  0
   -3.7814    0.1384    0.8554 C   0  0  0  0  0  0  0  0  0  0  0  0
   -4.1580   -1.3281    0.9281 C   0  0  0  0  0  0  0  0  0  0  0  0
    2.6765    3.6835   -0.9208 H   0  0  0  0  0  0  0  0  0  0  0  0
    1.7416    3.0387    0.4391 H   0  0  0  0  0  0  0  0  0  0  0  0
    3.4638    3.3697    0.6337 H   0  0  0  0  0  0  0  0  0  0  0  0
    4.0134    1.5754   -1.0080 H   0  0  0  0  0  0  0  0  0  0  0  0
    2.2768    1.2243   -1.2050 H   0  0  0  0  0  0  0  0  0  0  0  0
    3.8327   -2.3087    3.1999 H   0  0  0  0  0  0  0  0  0  0  0  0
    2.9906   -2.9032    1.7396 H   0  0  0  0  0  0  0  0  0  0  0  0
    5.4551   -2.5686    1.3658 H   0  0  0  0  0  0  0  0  0  0  0  0
    4.4602   -1.5782    0.2901 H   0  0  0  0  0  0  0  0  0  0  0  0
    5.2441   -0.8405    1.6963 H   0  0  0  0  0  0  0  0  0  0  0  0
   -0.5545   -1.1721    0.8696 H   0  0  0  0  0  0  0  0  0  0  0  0
   -0.2289   -2.9140    0.5144 H   0  0  0  0  0  0  0  0  0  0  0  0
    0.3637    2.4702   -1.8730 H   0  0  0  0  0  0  0  0  0  0  0  0
   -1.2369    2.3409   -2.6602 H   0  0  0  0  0  0  0  0  0  0  0  0
   -0.8684    2.9257    0.3163 H   0  0  0  0  0  0  0  0  0  0  0  0
   -1.1170    4.1836   -0.9135 H   0  0  0  0  0  0  0  0  0  0  0  0
   -2.3762    2.9781   -0.6032 H   0  0  0  0  0  0  0  0  0  0  0  0
   -3.7584    0.6014    1.8430 H   0  0  0  0  0  0  0  0  0  0  0  0
   -4.4753    0.6795    0.2037 H   0  0  0  0  0  0  0  0  0  0  0  0
   -3.4405   -1.8758    1.5340 H   0  0  0  0  0  0  0  0  0  0  0  0
   -5.1449   -1.4226    1.3695 H   0  0  0  0  0  0  0  0  0  0  0  0
   -4.1764   -1.7566   -0.0738 H   0  0  0  0  0  0  0  0  0  0  0  0
  1  2  1  0  0  0  0
  2  3  1  0  0  0  0
  3  4  2  0  0  0  0
  4  5  2  0  0  0  0
  4  6  2  0  0  0  0
  6  7  1  0  0  0  0
  7  8  1  0  0  0  0
  4  9  1  0  0  0  0
  9 10  1  0  0  0  0
 10 11  1  0  0  0  0
 11 12  1  0  0  0  0
 12 13  2  0  0  0  0
 12 14  2  0  0  0  0
 14 15  1  0  0  0  0
 15 16  1  0  0  0  0
 12 17  2  0  0  0  0
 17 18  1  0  0  0  0
 18 19  1  0  0  0  0
  1 20  1  0  0  0  0
  1 21  1  0  0  0  0
  1 22  1  0  0  0  0
  2 23  1  0  0  0  0
  2 24  1  0  0  0  0
  7 25  1  0  0  0  0
  7 26  1  0  0  0  0
  8 27  1  0  0  0  0
  8 28  1  0  0  0  0
  8 29  1  0  0  0  0
 10 30  1  0  0  0  0
 10 31  1  0  0  0  0
 15 32  1  0  0  0  0
 15 33  1  0  0  0  0
 16 34  1  0  0  0  0
 16 35  1  0  0  0  0
 16 36  1  0  0  0  0
 18 37  1  0  0  0  0
 18 38  1  0  0  0  0
 19 39  1  0  0  0  0
 19 40  1  0  0  0  0
 19 41  1  0  0  0  0
M  END
