  23
 
 C          4.6563547040        1.0608292706        0.0003116235
 C          3.6363337845       -0.0609016754        0.0002147448
 O          2.3237484883        0.5309673514       -0.0005440045
 C          1.2799832463       -0.2868611472       -0.0009878591
 O          1.3789813885       -1.4907296823        0.0001315871
 C          0.0016664950        0.5230992987       -0.0014679562
 C         -1.2770895650       -0.2862098664        0.0000273553
 O         -1.3766723523       -1.4900257796       -0.0003199389
 O         -2.3203988855        0.5321823920        0.0002355872
 C         -3.6333220166       -0.0588702825        0.0010160869
 C         -4.6526315885        1.0635035976        0.0008927159
 H          5.6549165325        0.6368920170        0.0002556274
 H          4.5289555596        1.6794849022       -0.8827533488
 H          4.5289872086        1.6793723827        0.8834560373
 H          3.7277296101       -0.6968385482        0.8864322481
 H          3.7284119867       -0.6971388738       -0.8857151319
 H          0.0020362032        1.1790260146        0.8722131321
 H          0.0016308791        1.1766462226       -0.8769444671
 H         -3.7258587997       -0.6954236685       -0.8846340606
 H         -3.7250769717       -0.6943606237        0.8875112925
 H         -5.6514564727        0.6401840297        0.0023996535
 H         -4.5239153158        1.6829188138        0.8832280404
 H         -4.5257999276        1.6811158650       -0.8829746392
          23
        -37.41202585
 C          3.1266545041       -1.5547751086        0.5899838267
 C          3.2820378754       -0.2096676792       -0.1009632537
 O          2.1739372715        0.6561352395        0.2143579002
 C          1.0902501078        0.5902170907       -0.5304346372
 O          0.9606117096       -0.1157271035       -1.5054400457
 C          0.0000763441        1.5043391505        0.0026480116
 C         -1.0942249691        0.5932046727        0.5310263582
 O         -0.9728197956       -0.1086531313        1.5099492520
 O         -2.1725682430        0.6555643629       -0.2223945457
 C         -3.2819962444       -0.2093650157        0.0890191189
 C         -3.1121550993       -1.5649597927       -0.5780272563
 H          4.0017850958       -2.1650251601        0.3930197606
 H          3.0178359270       -1.4136414296        1.6620414829
 H          2.2441195882       -2.0684111147        0.2142289330
 H          3.3302938888       -0.3328917761       -1.1866538030
 H          4.1587509390        0.3260511185        0.2630614694
 H          0.4079588561        2.1064692479        0.8121454192
 H         -0.4041692458        2.1123594090       -0.8042780152
 H         -3.3465784793       -0.3162144487        1.1756707759
 H         -4.1546948620        0.3177069115       -0.2964496457
 H         -2.9824014401       -1.4404614259       -1.6497246757
 H         -2.2370389322       -2.0718571955       -0.1769351677
 H         -3.9906275560       -2.1728620209       -0.3888876020
