 xtb: 6.7.1 (edcfbbe)
          04092505213D

 41 40  0     0  0            999 V2000
    5.1152   -2.4626   -1.4288 C   0  0  0  0  0  0  0  0  0  0  0  0
    4.0649   -1.3864   -1.6133 C   0  0  0  0  0  0  0  0  0  0  0  0
    3.2555   -1.3535   -0.4195 O   0  0  0  0  0  0  0  0  0  0  0  0
    2.2655   -0.1520   -0.1373 P   0  0  0  0  0  0  0  0  0  0  0  0
    3.0577    1.6455   -0.1552 S   0  0  0  0  0  0  0  0  0  0  0  0
    1.6866   -0.6567    1.2411 O   0  0  0  0  0  0  0  0  0  0  0  0
    1.5439    0.1608    2.4256 C   0  0  0  0  0  0  0  0  0  0  0  0
    0.3080   -0.2969    3.1722 C   0  0  0  0  0  0  0  0  0  0  0  0
    0.7323   -0.4791   -1.5791 S   0  0  0  0  0  0  0  0  0  0  0  0
    0.0255    1.1856   -1.4951 C   0  0  0  0  0  0  0  0  0  0  0  0
   -0.7540    1.5240    0.0964 S   0  0  0  0  0  0  0  0  0  0  0  0
   -2.5336    0.3748   -0.2007 P   0  0  0  0  0  0  0  0  0  0  0  0
   -3.1179    0.2473   -2.0620 S   0  0  0  0  0  0  0  0  0  0  0  0
   -3.6024    1.0746    0.7178 O   0  0  0  0  0  0  0  0  0  0  0  0
   -3.6125    1.0646    2.1699 C   0  0  0  0  0  0  0  0  0  0  0  0
   -2.8299    2.2314    2.7365 C   0  0  0  0  0  0  0  0  0  0  0  0
   -2.2977   -1.0179    0.5424 O   0  0  0  0  0  0  0  0  0  0  0  0
   -1.9994   -2.2646   -0.1202 C   0  0  0  0  0  0  0  0  0  0  0  0
   -0.9084   -2.9887    0.6420 C   0  0  0  0  0  0  0  0  0  0  0  0
    4.6348   -3.4204   -1.2525 H   0  0  0  0  0  0  0  0  0  0  0  0
    5.7245   -2.5236   -2.3245 H   0  0  0  0  0  0  0  0  0  0  0  0
    5.7480   -2.2244   -0.5787 H   0  0  0  0  0  0  0  0  0  0  0  0
    3.4146   -1.6046   -2.4654 H   0  0  0  0  0  0  0  0  0  0  0  0
    4.5201   -0.4002   -1.7539 H   0  0  0  0  0  0  0  0  0  0  0  0
    2.4456    0.0201    3.0256 H   0  0  0  0  0  0  0  0  0  0  0  0
    1.4725    1.2124    2.1300 H   0  0  0  0  0  0  0  0  0  0  0  0
   -0.5707   -0.1922    2.5413 H   0  0  0  0  0  0  0  0  0  0  0  0
    0.4128   -1.3389    3.4595 H   0  0  0  0  0  0  0  0  0  0  0  0
    0.1851    0.3132    4.0609 H   0  0  0  0  0  0  0  0  0  0  0  0
   -0.7196    1.2561   -2.2881 H   0  0  0  0  0  0  0  0  0  0  0  0
    0.8190    1.9225   -1.6198 H   0  0  0  0  0  0  0  0  0  0  0  0
   -4.6723    1.1426    2.4179 H   0  0  0  0  0  0  0  0  0  0  0  0
   -3.2206    0.1082    2.5191 H   0  0  0  0  0  0  0  0  0  0  0  0
   -2.9341    2.2337    3.8170 H   0  0  0  0  0  0  0  0  0  0  0  0
   -1.7756    2.1522    2.4801 H   0  0  0  0  0  0  0  0  0  0  0  0
   -3.2129    3.1668    2.3378 H   0  0  0  0  0  0  0  0  0  0  0  0
   -2.9268   -2.8423   -0.1223 H   0  0  0  0  0  0  0  0  0  0  0  0
   -1.7064   -2.0664   -1.1555 H   0  0  0  0  0  0  0  0  0  0  0  0
   -1.2141   -3.1423    1.6728 H   0  0  0  0  0  0  0  0  0  0  0  0
   -0.7338   -3.9509    0.1718 H   0  0  0  0  0  0  0  0  0  0  0  0
    0.0170   -2.4184    0.6284 H   0  0  0  0  0  0  0  0  0  0  0  0
  1  2  1  0  0  0  0
  2  3  1  0  0  0  0
  3  4  2  0  0  0  0
  4  5  2  0  0  0  0
  4  6  2  0  0  0  0
  6  7  1  0  0  0  0
  7  8  1  0  0  0  0
  4  9  1  0  0  0  0
  9 10  1  0  0  0  0
 10 11  1  0  0  0  0
 11 12  1  0  0  0  0
 12 13  2  0  0  0  0
 12 14  2  0  0  0  0
 14 15  1  0  0  0  0
 15 16  1  0  0  0  0
 12 17  2  0  0  0  0
 17 18  1  0  0  0  0
 18 19  1  0  0  0  0
  1 20  1  0  0  0  0
  1 21  1  0  0  0  0
  1 22  1  0  0  0  0
  2 23  1  0  0  0  0
  2 24  1  0  0  0  0
  7 25  1  0  0  0  0
  7 26  1  0  0  0  0
  8 27  1  0  0  0  0
  8 28  1  0  0  0  0
  8 29  1  0  0  0  0
 10 30  1  0  0  0  0
 10 31  1  0  0  0  0
 15 32  1  0  0  0  0
 15 33  1  0  0  0  0
 16 34  1  0  0  0  0
 16 35  1  0  0  0  0
 16 36  1  0  0  0  0
 18 37  1  0  0  0  0
 18 38  1  0  0  0  0
 19 39  1  0  0  0  0
 19 40  1  0  0  0  0
 19 41  1  0  0  0  0
M  END
