38
 xtb: 6.7.1 (edcfbbe)
C            5.80105416477293       -3.09593191193773       -0.74581427916388
C            4.86631796322962       -2.02962215057173       -1.25330033502462
O            3.61131244859059       -2.16601601003492       -0.50423548077318
C            2.65383958966212       -1.27821832323259       -0.78626244454947
O            2.76487585308755       -0.38692221701857       -1.61168854278158
C            1.41805756826921       -1.52096468093457        0.04226948870999
C            0.36169554354694       -0.46295652301838       -0.25189033650054
H           -0.01528821218035       -0.55834797706214       -1.27331356583078
C            0.82863704431424        0.96772737363010       -0.05805245635535
O            0.45639494598702        1.88945661844057       -0.76142679739183
O            1.65664280529204        1.08428383619649        0.98326030246229
C            2.11026224817177        2.43803643196746        1.32447019695450
C            1.04994768404148        3.17782214166118        2.10429906171974
S           -1.06329871927249       -0.75319955219354        0.90386210148164
P           -2.65888161116399        0.21089762533103       -0.12711396771626
S           -2.73580634081903       -0.07256634306878       -2.04343772064504
O           -3.88881024519835       -0.30163289020476        0.77734548890107
C           -4.44526012201262       -1.63415749860191        0.58261987247456
O           -2.62302065945338        1.77086037765039        0.24114620567231
C           -2.64988890654646        2.22370937701408        1.62904416952189
H            6.75103865549849       -3.01863212120030       -1.28265738854346
H            5.99895906677251       -2.96905816740595        0.32229105653922
H            5.39004165248903       -4.09483833047895       -0.91694139369855
H            4.64095006275449       -2.14895560153747       -2.31697459348900
H            5.25654482798608       -1.02270266690017       -1.08032142923232
H            1.70626425181536       -1.53908464817137        1.09781416388112
H            1.02949592926944       -2.51519500747439       -0.20289937441021
H            3.00590407894188        2.26488576159469        1.92292957570971
H            2.38484178170957        2.95346629749241        0.40081248920329
H            0.15582634311470        3.34955135939527        1.50000523334884
H            0.77336074628406        2.62371960412857        3.00590287634407
H            1.45109746261446        4.14984002780630        2.40845595293060
H           -3.68937178103737       -2.39768241057798        0.78465758080543
H           -4.82524601696530       -1.73265479923823       -0.43684508612056
H           -5.26085396376484       -1.71623334487241        1.30058245609857
H           -3.62869240332148        2.01663568062661        2.06641665619680
H           -2.47378509647168        3.29804891370934        1.58692070538285
H           -1.85916397948514        1.73523918777487        2.20490702956650
