  19
 
 C         -1.8929232740        0.0288812416        0.2998547634
 C         -1.2139923060       -1.2333012583       -0.2238735355
 C          0.2565681376       -1.2556688232        0.1785156300
 C          0.9812698814       -0.0137931322       -0.3391008931
 C          0.2962016576        1.2502326476        0.1866397298
 C         -1.1747749163        1.2708873208       -0.2191852052
 O          2.3333647995       -0.1006953223        0.0809277421
 H         -1.8683569068        0.0260282226        1.3914794001
 H         -2.9379513875        0.0462317361       -0.0139151750
 H         -1.7129818593       -2.1192328169        0.1714489131
 H         -1.2906987360       -1.2615337020       -1.3131923485
 H          0.3515701960       -1.2762908473        1.2658719991
 H          0.7532112214       -2.1439498056       -0.2151545849
 H          0.9435569457       -0.0128249586       -1.4418417061
 H          0.3828328174        1.2629089106        1.2754265087
 H          0.8027864948        2.1357929375       -0.2045699835
 H         -1.6501975015        2.1705030983        0.1750558787
 H         -1.2470297139        1.3016174437       -1.3088537778
 H          2.8094059154        0.6893187412       -0.2076882729
          19
        -23.05591535
 C         -1.8960285389       -0.0000842908        0.2789676212
 C         -1.1874043352       -1.2535679103       -0.2269922718
 C          0.2761417081       -1.2529691610        0.2052324906
 C          0.9866999948       -0.0000392554       -0.3138974999
 C          0.2760944441        1.2529729721        0.2050720860
 C         -1.1875750333        1.2535887652       -0.2267919590
 O          2.3664099718        0.0001006071        0.0081729691
 H         -1.8971653401       -0.0001835774        1.3711300081
 H         -2.9340378204       -0.0000816172       -0.0575636044
 H         -1.6833269742       -2.1451706124        0.1603057456
 H         -1.2411469200       -1.2856246835       -1.3173140146
 H          0.3345989114       -1.2690031444        1.2967003477
 H          0.7874922621       -2.1396162784       -0.1745020396
 H          0.9677156960       -0.0001275053       -1.4102739495
 H          0.3349034960        1.2693450252        1.2964929712
 H          0.7873455110        2.1395044027       -0.1750980163
 H         -1.6834143493        2.1450529487        0.1609665545
 H         -1.2415845426        1.2859904474       -1.3170920917
 H          2.4619469986       -0.0005041002        0.9709055928
