 xtb: 6.7.1 (edcfbbe)
          04092514003D

 41 40  0     0  0            999 V2000
    4.1984   -1.9703   -2.1165 C   0  0  0  0  0  0  0  0  0  0  0  0
    4.6645   -1.5226   -0.7460 C   0  0  0  0  0  0  0  0  0  0  0  0
    3.5696   -1.2933    0.1585 O   0  0  0  0  0  0  0  0  0  0  0  0
    2.6197   -0.0219    0.0782 P   0  0  0  0  0  0  0  0  0  0  0  0
    3.4846    1.6247   -0.5267 S   0  0  0  0  0  0  0  0  0  0  0  0
    2.0931    0.1214    1.5575 O   0  0  0  0  0  0  0  0  0  0  0  0
    1.1227   -0.7131    2.2316 C   0  0  0  0  0  0  0  0  0  0  0  0
    1.5156   -2.1744    2.2601 C   0  0  0  0  0  0  0  0  0  0  0  0
    0.9523   -0.6805   -1.0880 S   0  0  0  0  0  0  0  0  0  0  0  0
    0.2892    0.9534   -1.4901 C   0  0  0  0  0  0  0  0  0  0  0  0
   -0.5084    1.7844   -0.0825 S   0  0  0  0  0  0  0  0  0  0  0  0
   -2.3412    0.7173   -0.1272 P   0  0  0  0  0  0  0  0  0  0  0  0
   -3.1195    0.3270   -1.8842 S   0  0  0  0  0  0  0  0  0  0  0  0
   -3.1269    1.7158    0.8152 O   0  0  0  0  0  0  0  0  0  0  0  0
   -4.5698    1.7519    0.8777 C   0  0  0  0  0  0  0  0  0  0  0  0
   -5.1515    0.4836    1.4680 C   0  0  0  0  0  0  0  0  0  0  0  0
   -2.1049   -0.5586    0.7941 O   0  0  0  0  0  0  0  0  0  0  0  0
   -2.1152   -1.9322    0.3537 C   0  0  0  0  0  0  0  0  0  0  0  0
   -2.7418   -2.7744    1.4471 C   0  0  0  0  0  0  0  0  0  0  0  0
    5.0641   -2.2412   -2.7132 H   0  0  0  0  0  0  0  0  0  0  0  0
    3.5373   -2.8285   -2.0327 H   0  0  0  0  0  0  0  0  0  0  0  0
    3.6668   -1.1621   -2.6156 H   0  0  0  0  0  0  0  0  0  0  0  0
    5.2531   -0.6027   -0.8204 H   0  0  0  0  0  0  0  0  0  0  0  0
    5.2513   -2.2979   -0.2508 H   0  0  0  0  0  0  0  0  0  0  0  0
    1.0815   -0.2848    3.2342 H   0  0  0  0  0  0  0  0  0  0  0  0
    0.1553   -0.5734    1.7427 H   0  0  0  0  0  0  0  0  0  0  0  0
    1.5525   -2.5777    1.2500 H   0  0  0  0  0  0  0  0  0  0  0  0
    2.4935   -2.2918    2.7193 H   0  0  0  0  0  0  0  0  0  0  0  0
    0.7796   -2.7261    2.8374 H   0  0  0  0  0  0  0  0  0  0  0  0
   -0.4370    0.8138   -2.2913 H   0  0  0  0  0  0  0  0  0  0  0  0
    1.1079    1.6022   -1.8035 H   0  0  0  0  0  0  0  0  0  0  0  0
   -4.7794    2.6208    1.5035 H   0  0  0  0  0  0  0  0  0  0  0  0
   -4.9565    1.9212   -0.1322 H   0  0  0  0  0  0  0  0  0  0  0  0
   -6.2197    0.6138    1.6132 H   0  0  0  0  0  0  0  0  0  0  0  0
   -4.9879   -0.3510    0.7875 H   0  0  0  0  0  0  0  0  0  0  0  0
   -4.6817    0.2645    2.4235 H   0  0  0  0  0  0  0  0  0  0  0  0
   -2.6766   -1.9971   -0.5840 H   0  0  0  0  0  0  0  0  0  0  0  0
   -1.0809   -2.2309    0.1661 H   0  0  0  0  0  0  0  0  0  0  0  0
   -2.6845   -3.8197    1.1623 H   0  0  0  0  0  0  0  0  0  0  0  0
   -2.2068   -2.6259    2.3807 H   0  0  0  0  0  0  0  0  0  0  0  0
   -3.7831   -2.5013    1.5929 H   0  0  0  0  0  0  0  0  0  0  0  0
  1  2  1  0  0  0  0
  2  3  1  0  0  0  0
  3  4  2  0  0  0  0
  4  5  2  0  0  0  0
  4  6  2  0  0  0  0
  6  7  1  0  0  0  0
  7  8  1  0  0  0  0
  4  9  1  0  0  0  0
  9 10  1  0  0  0  0
 10 11  1  0  0  0  0
 11 12  1  0  0  0  0
 12 13  2  0  0  0  0
 12 14  2  0  0  0  0
 14 15  1  0  0  0  0
 15 16  1  0  0  0  0
 12 17  2  0  0  0  0
 17 18  1  0  0  0  0
 18 19  1  0  0  0  0
  1 20  1  0  0  0  0
  1 21  1  0  0  0  0
  1 22  1  0  0  0  0
  2 23  1  0  0  0  0
  2 24  1  0  0  0  0
  7 25  1  0  0  0  0
  7 26  1  0  0  0  0
  8 27  1  0  0  0  0
  8 28  1  0  0  0  0
  8 29  1  0  0  0  0
 10 30  1  0  0  0  0
 10 31  1  0  0  0  0
 15 32  1  0  0  0  0
 15 33  1  0  0  0  0
 16 34  1  0  0  0  0
 16 35  1  0  0  0  0
 16 36  1  0  0  0  0
 18 37  1  0  0  0  0
 18 38  1  0  0  0  0
 19 39  1  0  0  0  0
 19 40  1  0  0  0  0
 19 41  1  0  0  0  0
M  END
