 xtb: 6.7.1 (edcfbbe)
          04092505203D

 41 40  0     0  0            999 V2000
    2.1137    2.5219    0.7064 C   0  0  0  0  0  0  0  0  0  0  0  0
    1.5893    1.8957    1.9807 C   0  0  0  0  0  0  0  0  0  0  0  0
    0.8862    0.6508    1.7493 O   0  0  0  0  0  0  0  0  0  0  0  0
    1.5082   -0.6150    1.0367 P   0  0  0  0  0  0  0  0  0  0  0  0
    0.7158   -2.3140    1.6150 S   0  0  0  0  0  0  0  0  0  0  0  0
    3.0443   -0.4627    1.4397 O   0  0  0  0  0  0  0  0  0  0  0  0
    3.9673   -1.5632    1.4131 C   0  0  0  0  0  0  0  0  0  0  0  0
    4.2186   -2.0812    0.0115 C   0  0  0  0  0  0  0  0  0  0  0  0
    1.5001   -0.2410   -1.0627 S   0  0  0  0  0  0  0  0  0  0  0  0
    0.3482   -1.5144   -1.6180 C   0  0  0  0  0  0  0  0  0  0  0  0
   -1.1950   -0.8640   -2.3379 S   0  0  0  0  0  0  0  0  0  0  0  0
   -1.9552    0.3511   -0.7899 P   0  0  0  0  0  0  0  0  0  0  0  0
   -3.8601    0.7654   -0.9624 S   0  0  0  0  0  0  0  0  0  0  0  0
   -1.0177    1.6365   -0.6716 O   0  0  0  0  0  0  0  0  0  0  0  0
   -1.2374    2.8043   -1.4832 C   0  0  0  0  0  0  0  0  0  0  0  0
   -0.6742    2.6297   -2.8801 C   0  0  0  0  0  0  0  0  0  0  0  0
   -1.4967   -0.4603    0.4987 O   0  0  0  0  0  0  0  0  0  0  0  0
   -2.3590   -0.5657    1.6505 C   0  0  0  0  0  0  0  0  0  0  0  0
   -2.3830    0.7190    2.4494 C   0  0  0  0  0  0  0  0  0  0  0  0
    1.3077    2.6379   -0.0124 H   0  0  0  0  0  0  0  0  0  0  0  0
    2.5340    3.4960    0.9369 H   0  0  0  0  0  0  0  0  0  0  0  0
    2.8874    1.8955    0.2664 H   0  0  0  0  0  0  0  0  0  0  0  0
    0.8329    2.5260    2.4522 H   0  0  0  0  0  0  0  0  0  0  0  0
    2.4013    1.7010    2.6844 H   0  0  0  0  0  0  0  0  0  0  0  0
    4.8744   -1.1499    1.8568 H   0  0  0  0  0  0  0  0  0  0  0  0
    3.5722   -2.3606    2.0503 H   0  0  0  0  0  0  0  0  0  0  0  0
    4.4950   -1.2664   -0.6525 H   0  0  0  0  0  0  0  0  0  0  0  0
    5.0216   -2.8107    0.0412 H   0  0  0  0  0  0  0  0  0  0  0  0
    3.3216   -2.5638   -0.3737 H   0  0  0  0  0  0  0  0  0  0  0  0
    0.1155   -2.1707   -0.7752 H   0  0  0  0  0  0  0  0  0  0  0  0
    0.8114   -2.0655   -2.4329 H   0  0  0  0  0  0  0  0  0  0  0  0
   -2.3137    3.0049   -1.5171 H   0  0  0  0  0  0  0  0  0  0  0  0
   -0.7332    3.6078   -0.9435 H   0  0  0  0  0  0  0  0  0  0  0  0
    0.3653    2.3134   -2.8310 H   0  0  0  0  0  0  0  0  0  0  0  0
   -1.2436    1.8776   -3.4242 H   0  0  0  0  0  0  0  0  0  0  0  0
   -0.7393    3.5737   -3.4115 H   0  0  0  0  0  0  0  0  0  0  0  0
   -3.3645   -0.8272    1.3067 H   0  0  0  0  0  0  0  0  0  0  0  0
   -1.9357   -1.3940    2.2219 H   0  0  0  0  0  0  0  0  0  0  0  0
   -3.0094    0.5828    3.3252 H   0  0  0  0  0  0  0  0  0  0  0  0
   -1.3752    0.9810    2.7590 H   0  0  0  0  0  0  0  0  0  0  0  0
   -2.7917    1.5230    1.8385 H   0  0  0  0  0  0  0  0  0  0  0  0
  1  2  1  0  0  0  0
  2  3  1  0  0  0  0
  3  4  2  0  0  0  0
  4  5  2  0  0  0  0
  4  6  2  0  0  0  0
  6  7  1  0  0  0  0
  7  8  1  0  0  0  0
  4  9  1  0  0  0  0
  9 10  1  0  0  0  0
 10 11  1  0  0  0  0
 11 12  1  0  0  0  0
 12 13  2  0  0  0  0
 12 14  2  0  0  0  0
 14 15  1  0  0  0  0
 15 16  1  0  0  0  0
 12 17  1  0  0  0  0
 17 18  1  0  0  0  0
 18 19  1  0  0  0  0
  1 20  1  0  0  0  0
  1 21  1  0  0  0  0
  1 22  1  0  0  0  0
  2 23  1  0  0  0  0
  2 24  1  0  0  0  0
  7 25  1  0  0  0  0
  7 26  1  0  0  0  0
  8 27  1  0  0  0  0
  8 28  1  0  0  0  0
  8 29  1  0  0  0  0
 10 30  1  0  0  0  0
 10 31  1  0  0  0  0
 15 32  1  0  0  0  0
 15 33  1  0  0  0  0
 16 34  1  0  0  0  0
 16 35  1  0  0  0  0
 16 36  1  0  0  0  0
 18 37  1  0  0  0  0
 18 38  1  0  0  0  0
 19 39  1  0  0  0  0
 19 40  1  0  0  0  0
 19 41  1  0  0  0  0
M  END
