  22
 
 C          5.7413540180        0.0792024681       -0.0005903618
 C          4.4385174389        0.8691515527        0.0005087072
 C          3.2305461014       -0.0465298570        0.0000732180
 O          3.3106878704       -1.2621076819       -0.0003933505
 N          2.0519670302        0.6429237608        0.0001859604
 C          0.7502348194        0.1528250904        0.0000101602
 C          0.4461891341       -1.2079854232        0.0001715179
 C         -0.8698901376       -1.6264046951        0.0000963723
 C         -1.9023654206       -0.7020568182       -0.0001422343
 C         -1.6056658411        0.6554936224       -0.0003096886
 C         -0.2916632835        1.0826620062       -0.0002345626
 Cl        -2.8831465667        1.8271463650       -0.0006395161
 Cl        -3.5527419739       -1.2395316973       -0.0002306929
 H          6.5935114883        0.7523520369       -0.0004519499
 H          5.7939874326       -0.5588261225       -0.8791989167
 H          5.7947501636       -0.5601370443        0.8770172717
 H          4.3892556996        1.5078048243       -0.8832736053
 H          4.3897071155        1.5061021444        0.8855501670
 H          2.1196284463        1.6530258082        0.0004364822
 H          1.2430389873       -1.9323922066        0.0003726178
 H         -1.1031239739       -2.6780576619        0.0002632926
 H         -0.0865963376        2.1408636141       -0.0003516713
          22
        -39.98653049
 C          4.9666408978        0.5580110667        1.0130835456
 C          4.5107743907        0.0191982436       -0.3456512679
 C          3.0625531715       -0.4172855729       -0.2813732981
 O          2.7304310392       -1.5906919309       -0.2150347517
 N          2.1914415112        0.6279841585       -0.2811207785
 C          0.8036337250        0.6215608170       -0.1863525159
 C          0.1367840321        1.8489563947       -0.1859956350
 C         -1.2385412747        1.9012055834       -0.0945313970
 C         -1.9746250849        0.7292797966       -0.0019708536
 C         -1.3162774201       -0.4936965584       -0.0022781455
 C          0.0627903355       -0.5542787814       -0.0935665103
 Cl        -2.2191347995       -1.9698273228        0.1121193936
 Cl        -3.7030911355        0.7949007989        0.1128619546
 H          4.8348891140       -0.2016874229        1.7797969236
 H          4.3989971556        1.4385676680        1.3006372667
 H          6.0190802817        0.8227674828        0.9682631362
 H          5.1082749697       -0.8528689526       -0.6116070773
 H          4.6371176162        0.7816564205       -1.1141579907
 H          2.6009333489        1.5521616327       -0.3439423948
 H          0.6957387247        2.7680489362       -0.2573560807
 H         -1.7536662370        2.8471477608       -0.0938865132
 H          0.5611348341       -1.5091554791       -0.0925398064
