 xtb: 6.7.1 (edcfbbe)
          04092507313D

 38 37  0     0  0            999 V2000
    1.1442   -3.8222   -2.1273 C   0  0  0  0  0  0  0  0  0  0  0  0
    2.0183   -3.6893   -0.8901 C   0  0  0  0  0  0  0  0  0  0  0  0
    1.7958   -2.4251   -0.2342 O   0  0  0  0  0  0  0  0  0  0  0  0
    2.4415   -1.3667   -0.6823 C   0  0  0  0  0  0  0  0  0  0  0  0
    3.2516   -1.3807   -1.5811 O   0  0  0  0  0  0  0  0  0  0  0  0
    2.0142   -0.1086    0.0503 C   0  0  0  0  0  0  0  0  0  0  0  0
    0.9717    0.6178   -0.7996 C   0  0  0  0  0  0  0  0  0  0  0  0
    1.3957    0.8454   -1.7839 H   0  0  0  0  0  0  0  0  0  0  0  0
    0.4909    1.9228   -0.1848 C   0  0  0  0  0  0  0  0  0  0  0  0
   -0.6725    2.2690   -0.2294 O   0  0  0  0  0  0  0  0  0  0  0  0
    1.4675    2.6032    0.3476 O   0  0  0  0  0  0  0  0  0  0  0  0
    1.1573    3.8693    0.9682 C   0  0  0  0  0  0  0  0  0  0  0  0
    1.1043    4.9850   -0.0617 C   0  0  0  0  0  0  0  0  0  0  0  0
   -0.4918   -0.4055   -1.1532 S   0  0  0  0  0  0  0  0  0  0  0  0
   -1.6047   -0.1219    0.6402 P   0  0  0  0  0  0  0  0  0  0  0  0
   -0.6828    0.4336    2.2772 S   0  0  0  0  0  0  0  0  0  0  0  0
   -2.8947    0.7324    0.3336 O   0  0  0  0  0  0  0  0  0  0  0  0
   -3.7488    0.4759   -0.7980 C   0  0  0  0  0  0  0  0  0  0  0  0
   -2.2708   -1.5766    0.7764 O   0  0  0  0  0  0  0  0  0  0  0  0
   -1.4864   -2.7032    1.1820 C   0  0  0  0  0  0  0  0  0  0  0  0
    1.4243   -3.0729   -2.8640 H   0  0  0  0  0  0  0  0  0  0  0  0
    1.2799   -4.8091   -2.5568 H   0  0  0  0  0  0  0  0  0  0  0  0
    0.0974   -3.6817   -1.8713 H   0  0  0  0  0  0  0  0  0  0  0  0
    3.0765   -3.7593   -1.1568 H   0  0  0  0  0  0  0  0  0  0  0  0
    1.7652   -4.4357   -0.1370 H   0  0  0  0  0  0  0  0  0  0  0  0
    2.8749    0.5482    0.1763 H   0  0  0  0  0  0  0  0  0  0  0  0
    1.5966   -0.3699    1.0237 H   0  0  0  0  0  0  0  0  0  0  0  0
    0.2027    3.7701    1.4929 H   0  0  0  0  0  0  0  0  0  0  0  0
    1.9671    4.0184    1.6820 H   0  0  0  0  0  0  0  0  0  0  0  0
    0.9436    5.9300    0.4464 H   0  0  0  0  0  0  0  0  0  0  0  0
    2.0388    5.0291   -0.6143 H   0  0  0  0  0  0  0  0  0  0  0  0
    0.2854    4.8158   -0.7573 H   0  0  0  0  0  0  0  0  0  0  0  0
   -4.1828   -0.5191   -0.7167 H   0  0  0  0  0  0  0  0  0  0  0  0
   -3.1762    0.5646   -1.7212 H   0  0  0  0  0  0  0  0  0  0  0  0
   -4.5174    1.2427   -0.7491 H   0  0  0  0  0  0  0  0  0  0  0  0
   -1.0911   -2.5371    2.1850 H   0  0  0  0  0  0  0  0  0  0  0  0
   -0.6608   -2.8584    0.4871 H   0  0  0  0  0  0  0  0  0  0  0  0
   -2.1662   -3.5509    1.1723 H   0  0  0  0  0  0  0  0  0  0  0  0
  1  2  1  0  0  0  0
  2  3  1  0  0  0  0
  3  4  1  0  0  0  0
  4  5  2  0  0  0  0
  4  6  1  0  0  0  0
  6  7  1  0  0  0  0
  7  8  1  0  0  0  0
  7  9  1  0  0  0  0
  9 10  2  0  0  0  0
  9 11  4  0  0  0  0
 11 12  1  0  0  0  0
 12 13  1  0  0  0  0
  7 14  1  0  0  0  0
 14 15  1  0  0  0  0
 15 16  2  0  0  0  0
 15 17  2  0  0  0  0
 17 18  1  0  0  0  0
 15 19  1  0  0  0  0
 19 20  1  0  0  0  0
  1 21  1  0  0  0  0
  1 22  1  0  0  0  0
  1 23  1  0  0  0  0
  2 24  1  0  0  0  0
  2 25  1  0  0  0  0
  6 26  1  0  0  0  0
  6 27  1  0  0  0  0
 12 28  1  0  0  0  0
 12 29  1  0  0  0  0
 13 30  1  0  0  0  0
 13 31  1  0  0  0  0
 13 32  1  0  0  0  0
 18 33  1  0  0  0  0
 18 34  1  0  0  0  0
 18 35  1  0  0  0  0
 20 36  1  0  0  0  0
 20 37  1  0  0  0  0
 20 38  1  0  0  0  0
M  END
