 xtb: 6.7.1 (edcfbbe)
          04092505203D

 41 40  0     0  0            999 V2000
    3.2282   -0.7959   -2.5392 C   0  0  0  0  0  0  0  0  0  0  0  0
    3.2248    0.6728   -2.1744 C   0  0  0  0  0  0  0  0  0  0  0  0
    2.1752    1.0061   -1.2346 O   0  0  0  0  0  0  0  0  0  0  0  0
    2.0403    0.4514    0.2309 P   0  0  0  0  0  0  0  0  0  0  0  0
    0.9520    1.5988    1.3828 S   0  0  0  0  0  0  0  0  0  0  0  0
    3.5756    0.3734    0.6628 O   0  0  0  0  0  0  0  0  0  0  0  0
    4.0129    0.3340    2.0307 C   0  0  0  0  0  0  0  0  0  0  0  0
    3.6136   -0.9471    2.7347 C   0  0  0  0  0  0  0  0  0  0  0  0
    1.4142   -1.5885    0.1066 S   0  0  0  0  0  0  0  0  0  0  0  0
    0.0761   -1.6117    1.3333 C   0  0  0  0  0  0  0  0  0  0  0  0
   -1.5567   -2.0137    0.6395 S   0  0  0  0  0  0  0  0  0  0  0  0
   -2.0452   -0.2064   -0.3021 P   0  0  0  0  0  0  0  0  0  0  0  0
   -0.8578    0.5176   -1.6955 S   0  0  0  0  0  0  0  0  0  0  0  0
   -2.3141    0.7070    0.9577 O   0  0  0  0  0  0  0  0  0  0  0  0
   -2.5886    2.1198    0.8301 C   0  0  0  0  0  0  0  0  0  0  0  0
   -2.4776    2.7367    2.2077 C   0  0  0  0  0  0  0  0  0  0  0  0
   -3.5182   -0.4770   -0.8346 O   0  0  0  0  0  0  0  0  0  0  0  0
   -3.7954   -1.0762   -2.1159 C   0  0  0  0  0  0  0  0  0  0  0  0
   -5.0916   -0.4936   -2.6433 C   0  0  0  0  0  0  0  0  0  0  0  0
    3.4885   -1.4015   -1.6722 H   0  0  0  0  0  0  0  0  0  0  0  0
    2.2444   -1.0953   -2.8936 H   0  0  0  0  0  0  0  0  0  0  0  0
    3.9589   -0.9659   -3.3237 H   0  0  0  0  0  0  0  0  0  0  0  0
    2.9882    1.2996   -3.0357 H   0  0  0  0  0  0  0  0  0  0  0  0
    4.1801    0.9742   -1.7398 H   0  0  0  0  0  0  0  0  0  0  0  0
    5.0973    0.4293    1.9560 H   0  0  0  0  0  0  0  0  0  0  0  0
    3.5986    1.2037    2.5504 H   0  0  0  0  0  0  0  0  0  0  0  0
    4.0998   -0.9855    3.7042 H   0  0  0  0  0  0  0  0  0  0  0  0
    2.5352   -0.9708    2.8818 H   0  0  0  0  0  0  0  0  0  0  0  0
    3.9109   -1.8118    2.1470 H   0  0  0  0  0  0  0  0  0  0  0  0
    0.0262   -0.6353    1.8236 H   0  0  0  0  0  0  0  0  0  0  0  0
    0.2850   -2.4092    2.0414 H   0  0  0  0  0  0  0  0  0  0  0  0
   -1.8601    2.5543    0.1367 H   0  0  0  0  0  0  0  0  0  0  0  0
   -3.5928    2.2320    0.4145 H   0  0  0  0  0  0  0  0  0  0  0  0
   -2.7301    3.7901    2.1471 H   0  0  0  0  0  0  0  0  0  0  0  0
   -3.1565    2.2368    2.8920 H   0  0  0  0  0  0  0  0  0  0  0  0
   -1.4595    2.6327    2.5759 H   0  0  0  0  0  0  0  0  0  0  0  0
   -2.9587   -0.8634   -2.7902 H   0  0  0  0  0  0  0  0  0  0  0  0
   -3.8745   -2.1552   -1.9650 H   0  0  0  0  0  0  0  0  0  0  0  0
   -5.8911   -0.6626   -1.9276 H   0  0  0  0  0  0  0  0  0  0  0  0
   -4.9836    0.5754   -2.8067 H   0  0  0  0  0  0  0  0  0  0  0  0
   -5.3407   -0.9751   -3.5831 H   0  0  0  0  0  0  0  0  0  0  0  0
  1  2  1  0  0  0  0
  2  3  1  0  0  0  0
  3  4  2  0  0  0  0
  4  5  2  0  0  0  0
  4  6  2  0  0  0  0
  6  7  1  0  0  0  0
  7  8  1  0  0  0  0
  4  9  1  0  0  0  0
  9 10  1  0  0  0  0
 10 11  1  0  0  0  0
 11 12  1  0  0  0  0
 12 13  2  0  0  0  0
 12 14  2  0  0  0  0
 14 15  1  0  0  0  0
 15 16  1  0  0  0  0
 12 17  2  0  0  0  0
 17 18  1  0  0  0  0
 18 19  1  0  0  0  0
  1 20  1  0  0  0  0
  1 21  1  0  0  0  0
  1 22  1  0  0  0  0
  2 23  1  0  0  0  0
  2 24  1  0  0  0  0
  7 25  1  0  0  0  0
  7 26  1  0  0  0  0
  8 27  1  0  0  0  0
  8 28  1  0  0  0  0
  8 29  1  0  0  0  0
 10 30  1  0  0  0  0
 10 31  1  0  0  0  0
 15 32  1  0  0  0  0
 15 33  1  0  0  0  0
 16 34  1  0  0  0  0
 16 35  1  0  0  0  0
 16 36  1  0  0  0  0
 18 37  1  0  0  0  0
 18 38  1  0  0  0  0
 19 39  1  0  0  0  0
 19 40  1  0  0  0  0
 19 41  1  0  0  0  0
M  END
