  22
 
 C         -2.3277439798        0.5946100439        0.4356973230
 C         -1.3958853608       -0.1275731157       -0.5323114732
 N         -0.0027900281       -0.0011021220       -0.1296547227
 C          0.5814848583        1.2718032701       -0.5258913812
 C          1.6817887748        1.7083432486        0.4362561301
 C          0.8047265881       -1.1405462736       -0.5399358535
 C          0.6420806279       -2.3170387498        0.4173386358
 H         -3.3614487630        0.4276847730        0.1457842579
 H         -2.1737405627        0.2134611133        1.4403737222
 H         -2.1399374380        1.6644169909        0.4417869858
 H         -1.5528789239        0.2487742683       -1.5595409359
 H         -1.6536903819       -1.1878334159       -0.5302632953
 H          0.9763997230        1.2291297757       -1.5573036227
 H         -0.2074211225        2.0254390816       -0.5095064913
 H          2.0470191091        2.6926662767        0.1559695985
 H          1.2854236638        1.7497332838        1.4462351281
 H          2.5173582099        1.0141193870        0.4233371297
 H          0.5609187052       -1.4555854677       -1.5708275190
 H          1.8517649821       -0.8336777446       -0.5315969592
 H          1.3083384244       -3.1243454391        0.1256878084
 H          0.8866967190       -2.0004731075        1.4265267257
 H         -0.3771380741       -2.6926396734        0.4128257358
          22
        -23.41814696
 C         -1.5745892864       -1.7059249794        0.4188320044
 C         -0.8978596475       -0.9074137019       -0.7029161760
 N          0.1520301258        0.0125353240       -0.3010756149
 C         -0.2906937679        1.1120637397        0.5423954445
 C         -1.2997471694        2.0215829592       -0.1497629944
 C          1.3309782640       -0.6492100590        0.2391382242
 C          2.6092775113        0.1121845094       -0.1049195751
 H         -2.0952021782       -1.0453082731        1.1078286422
 H         -2.2995551566       -2.3912967264       -0.0114654532
 H         -0.8412500166       -2.2832324777        0.9774620994
 H         -1.6531149437       -0.3317148639       -1.2407768346
 H         -0.4505457401       -1.6053006430       -1.4166231130
 H         -0.7083090069        0.7543439445        1.5011545976
 H          0.5966473549        1.7033222779        0.7777284933
 H         -1.4217939062        2.9324712009        0.4304832508
 H         -0.9401638851        2.2811652820       -1.1412701428
 H         -2.2719227121        1.5449652578       -0.2408522013
 H          1.2628083991       -0.7781281447        1.3332350580
 H          1.3938850939       -1.6431818486       -0.2093431855
 H          3.4748484127       -0.4625044817        0.2136764412
 H          2.6624268856        0.2695165182       -1.1780544176
 H          2.6399047215        1.0799010880        0.3878200887
