41
 xtb: 6.7.1 (edcfbbe)
C            3.51271318668084        2.06584168356249        1.68284080217871
C            2.64464620675581        1.59051123730568        0.54603472097371
O            1.71342583842112        0.55566618335360        1.03838443541623
P            1.87545792024727       -0.98884679707406        0.65376010828452
S            0.52133591675240       -2.08027909630379        1.51511679616657
O            3.42189746531185       -1.25293349048862        1.01281417690537
C            4.00820293885379       -2.60047256566506        0.93531979314231
C            5.26775007474594       -2.58629743648860        1.76058716840926
S            1.96807382076406       -1.15219655499393       -1.46835187112327
C            0.19493643756926       -1.08042683969136       -1.91977627655829
S           -0.48439247073662        0.63292619246076       -2.05347869297509
P           -2.07802859304531        0.59998584643402       -0.65977427760670
S           -3.12406675198257       -1.04120441726505       -0.58831172048048
O           -2.84457121550418        1.94825283441696       -1.09660037336626
C           -3.79143862699875        1.95065185678318       -2.22433370169518
C           -5.18977360736778        2.14206962637110       -1.69469039995793
O           -1.38211465069045        1.08862304440143        0.69960566434308
C           -1.98811208166306        0.83371950429957        2.01560605632975
C           -3.16681685158882        1.74146818542510        2.26788429629614
H            4.15580080850854        2.87437632741643        1.32010844159066
H            2.90337191423408        2.45361309710916        2.50395147514935
H            4.14897062050902        1.25947177144589        2.05743419079397
H            3.23691196682287        1.18721971244612       -0.28037147040333
H            2.00112508226288        2.38498597338813        0.16114193006610
H            3.27842956603770       -3.31985108794549        1.31991329510252
H            4.21381625357414       -2.81824713749702       -0.11711991989023
H            5.04478395033375       -2.37210105163033        2.80946540069030
H            5.74005173549530       -3.57157665543091        1.70030305727653
H            5.97438207419776       -1.84140019418398        1.38404939856060
H           -0.40279309316581       -1.66397573973032       -1.21091327780668
H            0.12623940055080       -1.54115882203773       -2.90816233080935
H           -3.47639082007262        2.78065884467852       -2.86128441801862
H           -3.69469525282166        1.01670013552301       -2.78621660452442
H           -5.88455061114049        2.21008649320152       -2.53812755232563
H           -5.48861507125261        1.29856995660439       -1.06598506939204
H           -5.26237822750068        3.06546566300022       -1.11287225991996
H           -2.26129979383216       -0.22408046692911        2.06739949485594
H           -1.16979644862305        1.02409584838618        2.71285219117372
H           -3.99476397900870        1.52497619069290        1.58551861395268
H           -3.51985539699616        1.58098555335569        3.29191321547932
H           -2.88276854338967        2.79226738738603        2.16094178181796
