41
 xtb: 6.7.1 (edcfbbe)
C            1.70606182630260        1.17531641809594        2.85985696773501
C            1.49242293288929       -0.17053760063085        2.21823990894755
O            2.34750193460609       -0.22581537246502        1.02556131399780
P            2.33128711937552       -1.53630713282124        0.08585098334470
S            2.56257023424050       -3.25466045652247        0.97086685349770
O            3.40224779522323       -1.10111454208476       -1.02504604870422
C            4.83922289578470       -1.39506077477918       -0.87680073104221
C            5.49267877610815       -0.52269397643740        0.16561266998541
S            0.50934557694602       -1.52486303934544       -0.96882495444787
C            0.49399554297053        0.16070234751610       -1.71840140023953
S           -0.11624319367062        1.53587054653578       -0.66559659241803
P           -2.13253148288436        0.95845323776360       -0.38125285188908
S           -2.94511685111382       -0.07414464204921       -1.81987363957154
O           -2.83204090128442        2.36344105355446       -0.01251672779092
C           -3.25876779839640        3.28881346075303       -1.07186088498065
C           -3.83404754651960        4.50475998606059       -0.39405238865806
O           -2.06314545994565        0.27805456103793        1.06848227186038
C           -3.24062063647380       -0.40360868037241        1.64180252236847
C           -2.91960579515200       -1.86593585990700        1.80957116581412
H            1.08688290370092        1.24029510642196        3.75982394991032
H            2.75236336552447        1.30751403541073        3.15010677267218
H            1.41773586407867        1.98369927092371        2.18231413593011
H            0.45200109547378       -0.30991739120825        1.90473753181524
H            1.78272372901827       -0.98909618764154        2.88427735265296
H            4.94671132075620       -2.46014752452612       -0.64962781607074
H            5.23807753336822       -1.20094753640988       -1.87395039456059
H            5.31092013415975        0.53605267649022       -0.03918634765813
H            5.13803418870036       -0.75883144464631        1.17284494073943
H            6.57277784456613       -0.69963542427116        0.13564537171810
H           -0.14157199378792        0.08068027453319       -2.60416046809890
H            1.50266051714912        0.44672936923436       -2.02832085919016
H           -2.38687857600494        3.54055785058527       -1.68516243089410
H           -4.00053016052682        2.77709701527013       -1.69192736976981
H           -4.69602530638875        4.23612791424305        0.22318754368738
H           -3.08470801559560        4.99778265346173        0.23146995462167
H           -4.16485334752696        5.21245399366359       -1.16017083373385
H           -3.41995385869324        0.09242041284212        2.59868722334562
H           -4.10813099208816       -0.24776730411656        0.99343497227294
H           -3.76292602877263       -2.36425393253698        2.29834568314793
H           -2.74859294461859       -2.34166453149670        0.83965975000035
H           -2.03065747173705       -1.99894750631640        2.43347281883932
