 xtb: 6.7.1 (edcfbbe)
          04092513583D

 41 40  0     0  0            999 V2000
    3.0109   -2.5054    1.8273 C   0  0  0  0  0  0  0  0  0  0  0  0
    1.8089   -2.3104    0.9270 C   0  0  0  0  0  0  0  0  0  0  0  0
    1.4088   -0.9261    0.8770 O   0  0  0  0  0  0  0  0  0  0  0  0
    2.1950    0.1579    0.0378 P   0  0  0  0  0  0  0  0  0  0  0  0
    3.2413   -0.4945   -1.4908 S   0  0  0  0  0  0  0  0  0  0  0  0
    3.0254    0.8904    1.1743 O   0  0  0  0  0  0  0  0  0  0  0  0
    3.9571    1.9518    0.8768 C   0  0  0  0  0  0  0  0  0  0  0  0
    4.7947    2.1953    2.1163 C   0  0  0  0  0  0  0  0  0  0  0  0
    0.6688    1.5584   -0.4081 S   0  0  0  0  0  0  0  0  0  0  0  0
    0.1015    0.7926   -1.9483 C   0  0  0  0  0  0  0  0  0  0  0  0
   -0.6517   -0.8376   -1.6868 S   0  0  0  0  0  0  0  0  0  0  0  0
   -2.3621   -0.1855   -0.6276 P   0  0  0  0  0  0  0  0  0  0  0  0
   -3.1189    1.5299   -1.2096 S   0  0  0  0  0  0  0  0  0  0  0  0
   -2.0253   -0.2649    0.9268 O   0  0  0  0  0  0  0  0  0  0  0  0
   -2.0341    0.8610    1.8305 C   0  0  0  0  0  0  0  0  0  0  0  0
   -0.9851    0.6339    2.8987 C   0  0  0  0  0  0  0  0  0  0  0  0
   -3.2025   -1.5095   -0.8692 O   0  0  0  0  0  0  0  0  0  0  0  0
   -4.2074   -1.9981    0.0467 C   0  0  0  0  0  0  0  0  0  0  0  0
   -5.4455   -1.1240    0.0669 C   0  0  0  0  0  0  0  0  0  0  0  0
    3.8756   -1.9961    1.4040 H   0  0  0  0  0  0  0  0  0  0  0  0
    2.8121   -2.0997    2.8155 H   0  0  0  0  0  0  0  0  0  0  0  0
    3.2301   -3.5657    1.9086 H   0  0  0  0  0  0  0  0  0  0  0  0
    0.9263   -2.8267    1.3067 H   0  0  0  0  0  0  0  0  0  0  0  0
    2.0243   -2.6503   -0.0914 H   0  0  0  0  0  0  0  0  0  0  0  0
    4.5747    1.6451    0.0262 H   0  0  0  0  0  0  0  0  0  0  0  0
    3.3864    2.8427    0.6002 H   0  0  0  0  0  0  0  0  0  0  0  0
    5.3564    1.3016    2.3724 H   0  0  0  0  0  0  0  0  0  0  0  0
    5.4863    3.0091    1.9239 H   0  0  0  0  0  0  0  0  0  0  0  0
    4.1522    2.4593    2.9511 H   0  0  0  0  0  0  0  0  0  0  0  0
    0.9495    0.6405   -2.6160 H   0  0  0  0  0  0  0  0  0  0  0  0
   -0.6309    1.4733   -2.3829 H   0  0  0  0  0  0  0  0  0  0  0  0
   -1.8473    1.7799    1.2669 H   0  0  0  0  0  0  0  0  0  0  0  0
   -3.0348    0.9120    2.2675 H   0  0  0  0  0  0  0  0  0  0  0  0
    0.0102    0.6303    2.4613 H   0  0  0  0  0  0  0  0  0  0  0  0
   -1.0514    1.4321    3.6307 H   0  0  0  0  0  0  0  0  0  0  0  0
   -1.1567   -0.3201    3.3893 H   0  0  0  0  0  0  0  0  0  0  0  0
   -4.4315   -2.9970   -0.3307 H   0  0  0  0  0  0  0  0  0  0  0  0
   -3.7634   -2.0697    1.0425 H   0  0  0  0  0  0  0  0  0  0  0  0
   -5.2041   -0.1302    0.4423 H   0  0  0  0  0  0  0  0  0  0  0  0
   -5.8525   -1.0211   -0.9359 H   0  0  0  0  0  0  0  0  0  0  0  0
   -6.1926   -1.5767    0.7120 H   0  0  0  0  0  0  0  0  0  0  0  0
  1  2  1  0  0  0  0
  2  3  1  0  0  0  0
  3  4  2  0  0  0  0
  4  5  2  0  0  0  0
  4  6  2  0  0  0  0
  6  7  1  0  0  0  0
  7  8  1  0  0  0  0
  4  9  1  0  0  0  0
  9 10  1  0  0  0  0
 10 11  1  0  0  0  0
 11 12  1  0  0  0  0
 12 13  2  0  0  0  0
 12 14  2  0  0  0  0
 14 15  1  0  0  0  0
 15 16  1  0  0  0  0
 12 17  2  0  0  0  0
 17 18  1  0  0  0  0
 18 19  1  0  0  0  0
  1 20  1  0  0  0  0
  1 21  1  0  0  0  0
  1 22  1  0  0  0  0
  2 23  1  0  0  0  0
  2 24  1  0  0  0  0
  7 25  1  0  0  0  0
  7 26  1  0  0  0  0
  8 27  1  0  0  0  0
  8 28  1  0  0  0  0
  8 29  1  0  0  0  0
 10 30  1  0  0  0  0
 10 31  1  0  0  0  0
 15 32  1  0  0  0  0
 15 33  1  0  0  0  0
 16 34  1  0  0  0  0
 16 35  1  0  0  0  0
 16 36  1  0  0  0  0
 18 37  1  0  0  0  0
 18 38  1  0  0  0  0
 19 39  1  0  0  0  0
 19 40  1  0  0  0  0
 19 41  1  0  0  0  0
M  END
