 xtb: 6.7.1 (edcfbbe)
          04092505213D

 41 40  0     0  0            999 V2000
    2.3442    2.9505    0.5508 C   0  0  0  0  0  0  0  0  0  0  0  0
    3.5083    2.1028    1.0191 C   0  0  0  0  0  0  0  0  0  0  0  0
    3.5656    0.8442    0.3227 O   0  0  0  0  0  0  0  0  0  0  0  0
    2.4644   -0.2794    0.5253 P   0  0  0  0  0  0  0  0  0  0  0  0
    1.7647   -0.4490    2.3542 S   0  0  0  0  0  0  0  0  0  0  0  0
    3.1712   -1.5797   -0.0457 O   0  0  0  0  0  0  0  0  0  0  0  0
    3.9697   -2.4482    0.7851 C   0  0  0  0  0  0  0  0  0  0  0  0
    5.2579   -1.7834    1.2223 C   0  0  0  0  0  0  0  0  0  0  0  0
    1.1044    0.0254   -1.0636 S   0  0  0  0  0  0  0  0  0  0  0  0
   -0.0884   -1.2376   -0.5353 C   0  0  0  0  0  0  0  0  0  0  0  0
   -1.3015   -0.6045    0.6460 S   0  0  0  0  0  0  0  0  0  0  0  0
   -2.6865    0.0655   -0.8375 P   0  0  0  0  0  0  0  0  0  0  0  0
   -3.0432   -1.2041   -2.2827 S   0  0  0  0  0  0  0  0  0  0  0  0
   -2.1052    1.3890   -1.4577 O   0  0  0  0  0  0  0  0  0  0  0  0
   -1.7218    2.5516   -0.6805 C   0  0  0  0  0  0  0  0  0  0  0  0
   -0.7887    3.3809   -1.5375 C   0  0  0  0  0  0  0  0  0  0  0  0
   -3.9009    0.6136    0.0272 O   0  0  0  0  0  0  0  0  0  0  0  0
   -4.5512   -0.1010    1.0953 C   0  0  0  0  0  0  0  0  0  0  0  0
   -5.0501   -1.4646    0.6662 C   0  0  0  0  0  0  0  0  0  0  0  0
    2.3857    3.0858   -0.5268 H   0  0  0  0  0  0  0  0  0  0  0  0
    1.4068    2.4589    0.8092 H   0  0  0  0  0  0  0  0  0  0  0  0
    2.3812    3.9185    1.0398 H   0  0  0  0  0  0  0  0  0  0  0  0
    3.4284    1.9004    2.0921 H   0  0  0  0  0  0  0  0  0  0  0  0
    4.4678    2.5711    0.7971 H   0  0  0  0  0  0  0  0  0  0  0  0
    3.3727   -2.7413    1.6552 H   0  0  0  0  0  0  0  0  0  0  0  0
    4.1558   -3.3163    0.1512 H   0  0  0  0  0  0  0  0  0  0  0  0
    5.8780   -2.5078    1.7411 H   0  0  0  0  0  0  0  0  0  0  0  0
    5.7935   -1.3996    0.3580 H   0  0  0  0  0  0  0  0  0  0  0  0
    5.0382   -0.9573    1.8971 H   0  0  0  0  0  0  0  0  0  0  0  0
    0.4428   -2.0549   -0.0525 H   0  0  0  0  0  0  0  0  0  0  0  0
   -0.6171   -1.5858   -1.4251 H   0  0  0  0  0  0  0  0  0  0  0  0
   -2.6313    3.0971   -0.4229 H   0  0  0  0  0  0  0  0  0  0  0  0
   -1.2333    2.2130    0.2385 H   0  0  0  0  0  0  0  0  0  0  0  0
    0.0783    2.7880   -1.8173 H   0  0  0  0  0  0  0  0  0  0  0  0
   -1.3000    3.6967   -2.4419 H   0  0  0  0  0  0  0  0  0  0  0  0
   -0.4683    4.2536   -0.9780 H   0  0  0  0  0  0  0  0  0  0  0  0
   -3.8441   -0.1904    1.9248 H   0  0  0  0  0  0  0  0  0  0  0  0
   -5.3755    0.5561    1.3783 H   0  0  0  0  0  0  0  0  0  0  0  0
   -5.6984   -1.3752   -0.2022 H   0  0  0  0  0  0  0  0  0  0  0  0
   -4.2098   -2.1056    0.4025 H   0  0  0  0  0  0  0  0  0  0  0  0
   -5.6011   -1.9210    1.4822 H   0  0  0  0  0  0  0  0  0  0  0  0
  1  2  1  0  0  0  0
  2  3  1  0  0  0  0
  3  4  2  0  0  0  0
  4  5  2  0  0  0  0
  4  6  2  0  0  0  0
  6  7  1  0  0  0  0
  7  8  1  0  0  0  0
  4  9  1  0  0  0  0
  9 10  1  0  0  0  0
 10 11  1  0  0  0  0
 11 12  1  0  0  0  0
 12 13  2  0  0  0  0
 12 14  2  0  0  0  0
 14 15  1  0  0  0  0
 15 16  1  0  0  0  0
 12 17  2  0  0  0  0
 17 18  1  0  0  0  0
 18 19  1  0  0  0  0
  1 20  1  0  0  0  0
  1 21  1  0  0  0  0
  1 22  1  0  0  0  0
  2 23  1  0  0  0  0
  2 24  1  0  0  0  0
  7 25  1  0  0  0  0
  7 26  1  0  0  0  0
  8 27  1  0  0  0  0
  8 28  1  0  0  0  0
  8 29  1  0  0  0  0
 10 30  1  0  0  0  0
 10 31  1  0  0  0  0
 15 32  1  0  0  0  0
 15 33  1  0  0  0  0
 16 34  1  0  0  0  0
 16 35  1  0  0  0  0
 16 36  1  0  0  0  0
 18 37  1  0  0  0  0
 18 38  1  0  0  0  0
 19 39  1  0  0  0  0
 19 40  1  0  0  0  0
 19 41  1  0  0  0  0
M  END
