 xtb: 6.7.1 (edcfbbe)
          04092505203D

 41 40  0     0  0            999 V2000
    4.3465   -1.8770   -0.7755 C   0  0  0  0  0  0  0  0  0  0  0  0
    4.5872   -0.4037   -0.5156 C   0  0  0  0  0  0  0  0  0  0  0  0
    3.5628    0.1809    0.3051 O   0  0  0  0  0  0  0  0  0  0  0  0
    2.0592    0.3497   -0.1898 P   0  0  0  0  0  0  0  0  0  0  0  0
    1.8841    0.8374   -2.0839 S   0  0  0  0  0  0  0  0  0  0  0  0
    1.5119    1.3668    0.8989 O   0  0  0  0  0  0  0  0  0  0  0  0
    1.5626    2.7938    0.7147 C   0  0  0  0  0  0  0  0  0  0  0  0
    2.9825    3.3132    0.6433 C   0  0  0  0  0  0  0  0  0  0  0  0
    1.1331   -1.4225    0.4712 S   0  0  0  0  0  0  0  0  0  0  0  0
   -0.0929   -1.6893   -0.8648 C   0  0  0  0  0  0  0  0  0  0  0  0
   -1.7534   -2.0294   -0.2392 S   0  0  0  0  0  0  0  0  0  0  0  0
   -2.3765   -0.0661    0.2935 P   0  0  0  0  0  0  0  0  0  0  0  0
   -1.3747    1.4000   -0.5553 S   0  0  0  0  0  0  0  0  0  0  0  0
   -2.4795   -0.0132    1.8724 O   0  0  0  0  0  0  0  0  0  0  0  0
   -1.3488    0.0238    2.7628 C   0  0  0  0  0  0  0  0  0  0  0  0
   -1.0738   -1.3498    3.3445 C   0  0  0  0  0  0  0  0  0  0  0  0
   -3.9355   -0.0626    0.0510 O   0  0  0  0  0  0  0  0  0  0  0  0
   -4.5164    0.3115   -1.2114 C   0  0  0  0  0  0  0  0  0  0  0  0
   -4.2065   -0.6871   -2.3087 C   0  0  0  0  0  0  0  0  0  0  0  0
    4.1873   -2.4058    0.1608 H   0  0  0  0  0  0  0  0  0  0  0  0
    3.4675   -2.0026   -1.4065 H   0  0  0  0  0  0  0  0  0  0  0  0
    5.2076   -2.2959   -1.2862 H   0  0  0  0  0  0  0  0  0  0  0  0
    4.6291    0.1486   -1.4601 H   0  0  0  0  0  0  0  0  0  0  0  0
    5.5032   -0.2388    0.0533 H   0  0  0  0  0  0  0  0  0  0  0  0
    1.0055    3.0411   -0.1956 H   0  0  0  0  0  0  0  0  0  0  0  0
    1.0288    3.1869    1.5815 H   0  0  0  0  0  0  0  0  0  0  0  0
    3.5469    2.9799    1.5104 H   0  0  0  0  0  0  0  0  0  0  0  0
    3.4678    2.9433   -0.2592 H   0  0  0  0  0  0  0  0  0  0  0  0
    2.9653    4.3982    0.6142 H   0  0  0  0  0  0  0  0  0  0  0  0
    0.1981   -2.5757   -1.4217 H   0  0  0  0  0  0  0  0  0  0  0  0
   -0.1019   -0.8029   -1.5043 H   0  0  0  0  0  0  0  0  0  0  0  0
   -0.4741    0.4187    2.2342 H   0  0  0  0  0  0  0  0  0  0  0  0
   -1.6380    0.7296    3.5444 H   0  0  0  0  0  0  0  0  0  0  0  0
   -1.9770   -1.7399    3.8047 H   0  0  0  0  0  0  0  0  0  0  0  0
   -0.7438   -2.0403    2.5717 H   0  0  0  0  0  0  0  0  0  0  0  0
   -0.2929   -1.2660    4.0935 H   0  0  0  0  0  0  0  0  0  0  0  0
   -5.5856    0.3570   -0.9998 H   0  0  0  0  0  0  0  0  0  0  0  0
   -4.1499    1.3072   -1.4820 H   0  0  0  0  0  0  0  0  0  0  0  0
   -4.7835   -0.4367   -3.1932 H   0  0  0  0  0  0  0  0  0  0  0  0
   -3.1471   -0.6509   -2.5597 H   0  0  0  0  0  0  0  0  0  0  0  0
   -4.4580   -1.6938   -1.9851 H   0  0  0  0  0  0  0  0  0  0  0  0
  1  2  1  0  0  0  0
  2  3  1  0  0  0  0
  3  4  2  0  0  0  0
  4  5  2  0  0  0  0
  4  6  2  0  0  0  0
  6  7  1  0  0  0  0
  7  8  1  0  0  0  0
  4  9  1  0  0  0  0
  9 10  1  0  0  0  0
 10 11  1  0  0  0  0
 11 12  1  0  0  0  0
 12 13  2  0  0  0  0
 12 14  2  0  0  0  0
 14 15  1  0  0  0  0
 15 16  1  0  0  0  0
 12 17  2  0  0  0  0
 17 18  1  0  0  0  0
 18 19  1  0  0  0  0
  1 20  1  0  0  0  0
  1 21  1  0  0  0  0
  1 22  1  0  0  0  0
  2 23  1  0  0  0  0
  2 24  1  0  0  0  0
  7 25  1  0  0  0  0
  7 26  1  0  0  0  0
  8 27  1  0  0  0  0
  8 28  1  0  0  0  0
  8 29  1  0  0  0  0
 10 30  1  0  0  0  0
 10 31  1  0  0  0  0
 15 32  1  0  0  0  0
 15 33  1  0  0  0  0
 16 34  1  0  0  0  0
 16 35  1  0  0  0  0
 16 36  1  0  0  0  0
 18 37  1  0  0  0  0
 18 38  1  0  0  0  0
 19 39  1  0  0  0  0
 19 40  1  0  0  0  0
 19 41  1  0  0  0  0
M  END
