 xtb: 6.7.1 (edcfbbe)
          04092505213D

 41 40  0     0  0            999 V2000
    3.2832    1.9567   -1.9311 C   0  0  0  0  0  0  0  0  0  0  0  0
    4.3291    1.1744   -1.1657 C   0  0  0  0  0  0  0  0  0  0  0  0
    3.9013    0.8315    0.1754 O   0  0  0  0  0  0  0  0  0  0  0  0
    2.6624   -0.0592    0.5572 P   0  0  0  0  0  0  0  0  0  0  0  0
    2.8279   -0.6668    2.4105 S   0  0  0  0  0  0  0  0  0  0  0  0
    2.7116   -1.1501   -0.6032 O   0  0  0  0  0  0  0  0  0  0  0  0
    1.7197   -2.1437   -0.8971 C   0  0  0  0  0  0  0  0  0  0  0  0
    1.5662   -3.1685    0.2077 C   0  0  0  0  0  0  0  0  0  0  0  0
    0.9365    1.1516    0.1927 S   0  0  0  0  0  0  0  0  0  0  0  0
   -0.0885    0.6501    1.5912 C   0  0  0  0  0  0  0  0  0  0  0  0
   -1.1190   -0.8136    1.2713 S   0  0  0  0  0  0  0  0  0  0  0  0
   -2.1365   -0.1331   -0.4638 P   0  0  0  0  0  0  0  0  0  0  0  0
   -1.2833   -0.2714   -2.2180 S   0  0  0  0  0  0  0  0  0  0  0  0
   -2.5055    1.3539   -0.0096 O   0  0  0  0  0  0  0  0  0  0  0  0
   -2.5573    2.4482   -0.9416 C   0  0  0  0  0  0  0  0  0  0  0  0
   -3.8492    2.4229   -1.7326 C   0  0  0  0  0  0  0  0  0  0  0  0
   -3.4541   -1.0101   -0.4786 O   0  0  0  0  0  0  0  0  0  0  0  0
   -4.2437   -1.4248    0.6600 C   0  0  0  0  0  0  0  0  0  0  0  0
   -4.8398   -0.2534    1.4114 C   0  0  0  0  0  0  0  0  0  0  0  0
    2.9747    2.8330   -1.3663 H   0  0  0  0  0  0  0  0  0  0  0  0
    3.7025    2.2734   -2.8811 H   0  0  0  0  0  0  0  0  0  0  0  0
    2.4072    1.3390   -2.1265 H   0  0  0  0  0  0  0  0  0  0  0  0
    5.2270    1.7694   -0.9918 H   0  0  0  0  0  0  0  0  0  0  0  0
    4.5883    0.2516   -1.6876 H   0  0  0  0  0  0  0  0  0  0  0  0
    0.7683   -1.6448   -1.1096 H   0  0  0  0  0  0  0  0  0  0  0  0
    2.0851   -2.6056   -1.8166 H   0  0  0  0  0  0  0  0  0  0  0  0
    2.5305   -3.6097    0.4474 H   0  0  0  0  0  0  0  0  0  0  0  0
    1.1623   -2.7088    1.1081 H   0  0  0  0  0  0  0  0  0  0  0  0
    0.8852   -3.9461   -0.1234 H   0  0  0  0  0  0  0  0  0  0  0  0
   -0.7299    1.4922    1.8346 H   0  0  0  0  0  0  0  0  0  0  0  0
    0.5572    0.3815    2.4311 H   0  0  0  0  0  0  0  0  0  0  0  0
   -2.4781    3.3402   -0.3189 H   0  0  0  0  0  0  0  0  0  0  0  0
   -1.6923    2.3842   -1.6093 H   0  0  0  0  0  0  0  0  0  0  0  0
   -4.7044    2.4799   -1.0646 H   0  0  0  0  0  0  0  0  0  0  0  0
   -3.8707    3.2646   -2.4174 H   0  0  0  0  0  0  0  0  0  0  0  0
   -3.9078    1.4978   -2.3056 H   0  0  0  0  0  0  0  0  0  0  0  0
   -5.0170   -2.0512    0.2121 H   0  0  0  0  0  0  0  0  0  0  0  0
   -3.6119   -2.0302    1.3145 H   0  0  0  0  0  0  0  0  0  0  0  0
   -5.4811   -0.6299    2.2023 H   0  0  0  0  0  0  0  0  0  0  0  0
   -4.0521    0.3530    1.8530 H   0  0  0  0  0  0  0  0  0  0  0  0
   -5.4280    0.3656    0.7389 H   0  0  0  0  0  0  0  0  0  0  0  0
  1  2  1  0  0  0  0
  2  3  1  0  0  0  0
  3  4  2  0  0  0  0
  4  5  2  0  0  0  0
  4  6  2  0  0  0  0
  6  7  1  0  0  0  0
  7  8  1  0  0  0  0
  4  9  1  0  0  0  0
  9 10  1  0  0  0  0
 10 11  1  0  0  0  0
 11 12  1  0  0  0  0
 12 13  2  0  0  0  0
 12 14  1  0  0  0  0
 14 15  1  0  0  0  0
 15 16  1  0  0  0  0
 12 17  2  0  0  0  0
 17 18  1  0  0  0  0
 18 19  1  0  0  0  0
  1 20  1  0  0  0  0
  1 21  1  0  0  0  0
  1 22  1  0  0  0  0
  2 23  1  0  0  0  0
  2 24  1  0  0  0  0
  7 25  1  0  0  0  0
  7 26  1  0  0  0  0
  8 27  1  0  0  0  0
  8 28  1  0  0  0  0
  8 29  1  0  0  0  0
 10 30  1  0  0  0  0
 10 31  1  0  0  0  0
 15 32  1  0  0  0  0
 15 33  1  0  0  0  0
 16 34  1  0  0  0  0
 16 35  1  0  0  0  0
 16 36  1  0  0  0  0
 18 37  1  0  0  0  0
 18 38  1  0  0  0  0
 19 39  1  0  0  0  0
 19 40  1  0  0  0  0
 19 41  1  0  0  0  0
M  END
