 xtb: 6.7.1 (edcfbbe)
          04092505213D

 41 40  0     0  0            999 V2000
    1.8992    2.7439    0.1834 C   0  0  0  0  0  0  0  0  0  0  0  0
    2.8649    2.0822    1.1446 C   0  0  0  0  0  0  0  0  0  0  0  0
    3.1787    0.7361    0.7475 O   0  0  0  0  0  0  0  0  0  0  0  0
    2.0879   -0.4183    0.7273 P   0  0  0  0  0  0  0  0  0  0  0  0
    0.8243   -0.4026    2.2323 S   0  0  0  0  0  0  0  0  0  0  0  0
    2.9680   -1.7340    0.6208 O   0  0  0  0  0  0  0  0  0  0  0  0
    3.4582   -2.4332    1.7829 C   0  0  0  0  0  0  0  0  0  0  0  0
    4.5160   -1.6372    2.5179 C   0  0  0  0  0  0  0  0  0  0  0  0
    1.3463   -0.3967   -1.2421 S   0  0  0  0  0  0  0  0  0  0  0  0
    0.1107   -1.7216   -1.0209 C   0  0  0  0  0  0  0  0  0  0  0  0
   -1.4171   -1.4364   -1.9552 S   0  0  0  0  0  0  0  0  0  0  0  0
   -2.3170    0.0900   -0.8020 P   0  0  0  0  0  0  0  0  0  0  0  0
   -4.1557    0.5604   -1.2794 S   0  0  0  0  0  0  0  0  0  0  0  0
   -1.3004    1.3225   -0.7949 O   0  0  0  0  0  0  0  0  0  0  0  0
   -1.3971    2.3686   -1.7768 C   0  0  0  0  0  0  0  0  0  0  0  0
   -0.9655    1.8963   -3.1506 C   0  0  0  0  0  0  0  0  0  0  0  0
   -2.0974   -0.5308    0.6401 O   0  0  0  0  0  0  0  0  0  0  0  0
   -2.9030   -0.1340    1.7683 C   0  0  0  0  0  0  0  0  0  0  0  0
   -2.6161    1.2891    2.1954 C   0  0  0  0  0  0  0  0  0  0  0  0
    0.9378    2.2316    0.2192 H   0  0  0  0  0  0  0  0  0  0  0  0
    1.7591    3.7817    0.4694 H   0  0  0  0  0  0  0  0  0  0  0  0
    2.2851    2.6949   -0.8320 H   0  0  0  0  0  0  0  0  0  0  0  0
    2.4439    2.0562    2.1551 H   0  0  0  0  0  0  0  0  0  0  0  0
    3.8330    2.5848    1.1579 H   0  0  0  0  0  0  0  0  0  0  0  0
    2.6102   -2.6483    2.4416 H   0  0  0  0  0  0  0  0  0  0  0  0
    3.8593   -3.3630    1.3778 H   0  0  0  0  0  0  0  0  0  0  0  0
    4.0722   -0.7435    2.9545 H   0  0  0  0  0  0  0  0  0  0  0  0
    4.9371   -2.2455    3.3123 H   0  0  0  0  0  0  0  0  0  0  0  0
    5.3046   -1.3388    1.8321 H   0  0  0  0  0  0  0  0  0  0  0  0
   -0.1281   -1.8052    0.0395 H   0  0  0  0  0  0  0  0  0  0  0  0
    0.5164   -2.6501   -1.4148 H   0  0  0  0  0  0  0  0  0  0  0  0
   -2.4333    2.7219   -1.8005 H   0  0  0  0  0  0  0  0  0  0  0  0
   -0.7437    3.1550   -1.3971 H   0  0  0  0  0  0  0  0  0  0  0  0
    0.0294    1.4592   -3.1061 H   0  0  0  0  0  0  0  0  0  0  0  0
   -1.6627    1.1446   -3.5203 H   0  0  0  0  0  0  0  0  0  0  0  0
   -0.9613    2.7390   -3.8341 H   0  0  0  0  0  0  0  0  0  0  0  0
   -3.9564   -0.2551    1.4969 H   0  0  0  0  0  0  0  0  0  0  0  0
   -2.6289   -0.8484    2.5460 H   0  0  0  0  0  0  0  0  0  0  0  0
   -3.1846    1.5155    3.0917 H   0  0  0  0  0  0  0  0  0  0  0  0
   -1.5550    1.4053    2.4029 H   0  0  0  0  0  0  0  0  0  0  0  0
   -2.9060    1.9794    1.4046 H   0  0  0  0  0  0  0  0  0  0  0  0
  1  2  1  0  0  0  0
  2  3  1  0  0  0  0
  3  4  2  0  0  0  0
  4  5  2  0  0  0  0
  4  6  2  0  0  0  0
  6  7  1  0  0  0  0
  7  8  1  0  0  0  0
  4  9  1  0  0  0  0
  9 10  1  0  0  0  0
 10 11  1  0  0  0  0
 11 12  1  0  0  0  0
 12 13  2  0  0  0  0
 12 14  1  0  0  0  0
 14 15  1  0  0  0  0
 15 16  1  0  0  0  0
 12 17  2  0  0  0  0
 17 18  1  0  0  0  0
 18 19  1  0  0  0  0
  1 20  1  0  0  0  0
  1 21  1  0  0  0  0
  1 22  1  0  0  0  0
  2 23  1  0  0  0  0
  2 24  1  0  0  0  0
  7 25  1  0  0  0  0
  7 26  1  0  0  0  0
  8 27  1  0  0  0  0
  8 28  1  0  0  0  0
  8 29  1  0  0  0  0
 10 30  1  0  0  0  0
 10 31  1  0  0  0  0
 15 32  1  0  0  0  0
 15 33  1  0  0  0  0
 16 34  1  0  0  0  0
 16 35  1  0  0  0  0
 16 36  1  0  0  0  0
 18 37  1  0  0  0  0
 18 38  1  0  0  0  0
 19 39  1  0  0  0  0
 19 40  1  0  0  0  0
 19 41  1  0  0  0  0
M  END
