  34
 
 C          5.0451440912        0.9510976385       -0.2374663849
 C          3.7609679765        0.1733479403       -0.2182405220
 C          2.8532670849        0.3672895609        0.7308626119
 C          1.5348219070       -0.3309159097        0.8837019156
 C          0.3965906145        0.5931708233        0.4382333598
 C         -0.9874709733       -0.0839273361        0.4197560867
 C         -1.4412784558       -0.5035944297        1.8137805883
 C         -0.9924630139       -1.1980110291       -0.5919785048
 C         -1.0105780015       -2.4925409534       -0.3385668020
 O         -1.8684022935        0.9847233259       -0.0545270091
 C         -3.1207878377        0.7276322707       -0.3925780583
 O         -3.6420050380       -0.3679019630       -0.3346615348
 C         -3.8170783327        1.9692853187       -0.8760813256
 C          3.6345053376       -0.8263088131       -1.3310194998
 H          5.8949289121        0.2703073713       -0.2410216278
 H          5.1235065145        1.6055495463        0.6262299975
 H          5.1031188800        1.5576862585       -1.1403980108
 H          3.0442077679        1.1242641264        1.4813651316
 H          1.5059236624       -1.2502836339        0.3001345276
 H          1.4014207207       -0.5932322898        1.9342987507
 H          0.6042580725        0.9555541647       -0.5707911579
 H          0.3418362277        1.4611454989        1.0966751527
 H         -2.4337052590       -0.9458610975        1.7602896545
 H         -0.7515449109       -1.2282254641        2.2313557213
 H         -1.4757969329        0.3704717252        2.4601255131
 H         -0.9500296027       -0.8429532682       -1.6147925294
 H         -0.9883684250       -3.2129539409       -1.1374188936
 H         -1.0588337069       -2.8878145416        0.6600160108
 H         -3.8235117642        1.9552722977       -1.9639170743
 H         -3.2890641090        2.8512758009       -0.5305287176
 H         -4.8459855572        1.9637734432       -0.5298268287
 H          4.2144804793       -1.7186182086       -1.0954301787
 H          2.6040383892       -1.1214020049       -1.5016272990
 H          4.0325812509       -0.4063379512       -2.2523207184
          34
        -44.01119101
 C          3.3831688044       -0.7519757017        0.1182833097
 C          2.3870948670        0.3269721410       -0.1880577979
 C          1.4788770473        0.1818113941       -1.1454224926
 C          0.4633150370        1.1955336799       -1.5748595685
 C         -0.9659320382        0.6398065180       -1.5632363425
 C         -1.5456216520        0.4630732923       -0.1489941396
 C         -2.9953985308       -0.0358918301       -0.2251693802
 C         -1.5319710108        1.7812390335        0.5847468072
 C         -1.0826208812        1.9771470497        1.8093913812
 O         -0.7513276798       -0.4584560483        0.6379898062
 C         -0.5622425472       -1.7157960973        0.2859629874
 O         -1.0169106827       -2.2473983097       -0.7082384464
 C          0.2839994818       -2.4345974744        1.3003723517
 C          2.5160817928        1.5716367566        0.6466005976
 H          3.2972457921       -1.0624170013        1.1584513503
 H          4.3945485010       -0.3765820108       -0.0332786399
 H          3.2348430274       -1.6186545652       -0.5209368144
 H          1.4452246373       -0.7462484169       -1.7062243244
 H          0.5147218314        2.0832620471       -0.9456289221
 H          0.6934838137        1.4934022561       -2.6027477026
 H         -0.9902488487       -0.3238128974       -2.0756788438
 H         -1.6239537203        1.3243294617       -2.1002184179
 H         -3.3774726427       -0.2009481020        0.7798678195
 H         -3.6133087510        0.7051858555       -0.7222388111
 H         -3.0422168595       -0.9692819056       -0.7810208888
 H         -1.9619853106        2.5916830617        0.0137834598
 H         -1.1214075522        2.9475141260        2.2727258929
 H         -0.6594610202        1.1753517168        2.3891046424
 H         -0.3384268915       -3.1599578130        1.8195902518
 H          0.6978353121       -1.7252777899        2.0076402056
 H          1.0751907388       -2.9739897100        0.7875153000
 H          2.8883509218        2.3994741915        0.0443991648
 H          1.5520558584        1.8612791141        1.0610052811
 H          3.2110325201        1.4068745413        1.4652579269
