 xtb: 6.7.1 (edcfbbe)
          04092514003D

 41 40  0     0  0            999 V2000
    5.2639   -1.9055   -1.3442 C   0  0  0  0  0  0  0  0  0  0  0  0
    4.2227   -0.9540   -1.8995 C   0  0  0  0  0  0  0  0  0  0  0  0
    3.9082    0.1004   -0.9562 O   0  0  0  0  0  0  0  0  0  0  0  0
    2.7504    0.0489    0.1140 P   0  0  0  0  0  0  0  0  0  0  0  0
    2.7204    1.6736    1.1973 S   0  0  0  0  0  0  0  0  0  0  0  0
    3.0600   -1.3022    0.8960 O   0  0  0  0  0  0  0  0  0  0  0  0
    2.5221   -1.5873    2.1983 C   0  0  0  0  0  0  0  0  0  0  0  0
    1.0661   -2.0030    2.1377 C   0  0  0  0  0  0  0  0  0  0  0  0
    0.9823   -0.3977   -1.0204 S   0  0  0  0  0  0  0  0  0  0  0  0
    0.2105    1.2417   -1.0158 C   0  0  0  0  0  0  0  0  0  0  0  0
   -0.8500    1.5573    0.4264 S   0  0  0  0  0  0  0  0  0  0  0  0
   -2.4369    0.2732   -0.1217 P   0  0  0  0  0  0  0  0  0  0  0  0
   -2.8841    0.1533   -2.0303 S   0  0  0  0  0  0  0  0  0  0  0  0
   -3.6344    0.7017    0.8323 O   0  0  0  0  0  0  0  0  0  0  0  0
   -4.6628    1.6297    0.4459 C   0  0  0  0  0  0  0  0  0  0  0  0
   -4.1607    3.0581    0.3844 C   0  0  0  0  0  0  0  0  0  0  0  0
   -1.9377   -1.0662    0.5604 O   0  0  0  0  0  0  0  0  0  0  0  0
   -2.4048   -2.3691    0.1526 C   0  0  0  0  0  0  0  0  0  0  0  0
   -3.8429   -2.6132    0.5605 C   0  0  0  0  0  0  0  0  0  0  0  0
    4.8717   -2.4425   -0.4853 H   0  0  0  0  0  0  0  0  0  0  0  0
    5.5359   -2.6177   -2.1175 H   0  0  0  0  0  0  0  0  0  0  0  0
    6.1496   -1.3545   -1.0396 H   0  0  0  0  0  0  0  0  0  0  0  0
    3.3004   -1.4810   -2.1585 H   0  0  0  0  0  0  0  0  0  0  0  0
    4.6034   -0.4220   -2.7734 H   0  0  0  0  0  0  0  0  0  0  0  0
    3.1508   -2.3985    2.5697 H   0  0  0  0  0  0  0  0  0  0  0  0
    2.6495   -0.7016    2.8288 H   0  0  0  0  0  0  0  0  0  0  0  0
    0.7511   -2.3411    3.1197 H   0  0  0  0  0  0  0  0  0  0  0  0
    0.4388   -1.1638    1.8413 H   0  0  0  0  0  0  0  0  0  0  0  0
    0.9373   -2.8087    1.4190 H   0  0  0  0  0  0  0  0  0  0  0  0
   -0.3936    1.3001   -1.9210 H   0  0  0  0  0  0  0  0  0  0  0  0
    0.9815    2.0096   -0.9975 H   0  0  0  0  0  0  0  0  0  0  0  0
   -5.0608    1.3214   -0.5265 H   0  0  0  0  0  0  0  0  0  0  0  0
   -5.4268    1.5083    1.2154 H   0  0  0  0  0  0  0  0  0  0  0  0
   -3.4378    3.1681   -0.4228 H   0  0  0  0  0  0  0  0  0  0  0  0
   -4.9992    3.7225    0.1988 H   0  0  0  0  0  0  0  0  0  0  0  0
   -3.6831    3.3340    1.3211 H   0  0  0  0  0  0  0  0  0  0  0  0
   -2.2889   -2.4528   -0.9327 H   0  0  0  0  0  0  0  0  0  0  0  0
   -1.7230   -3.0580    0.6526 H   0  0  0  0  0  0  0  0  0  0  0  0
   -3.9660   -2.4464    1.6272 H   0  0  0  0  0  0  0  0  0  0  0  0
   -4.5049   -1.9386    0.0193 H   0  0  0  0  0  0  0  0  0  0  0  0
   -4.1125   -3.6374    0.3212 H   0  0  0  0  0  0  0  0  0  0  0  0
  1  2  1  0  0  0  0
  2  3  1  0  0  0  0
  3  4  2  0  0  0  0
  4  5  2  0  0  0  0
  4  6  2  0  0  0  0
  6  7  1  0  0  0  0
  7  8  1  0  0  0  0
  4  9  1  0  0  0  0
  9 10  1  0  0  0  0
 10 11  1  0  0  0  0
 11 12  1  0  0  0  0
 12 13  2  0  0  0  0
 12 14  2  0  0  0  0
 14 15  1  0  0  0  0
 15 16  1  0  0  0  0
 12 17  2  0  0  0  0
 17 18  1  0  0  0  0
 18 19  1  0  0  0  0
  1 20  1  0  0  0  0
  1 21  1  0  0  0  0
  1 22  1  0  0  0  0
  2 23  1  0  0  0  0
  2 24  1  0  0  0  0
  7 25  1  0  0  0  0
  7 26  1  0  0  0  0
  8 27  1  0  0  0  0
  8 28  1  0  0  0  0
  8 29  1  0  0  0  0
 10 30  1  0  0  0  0
 10 31  1  0  0  0  0
 15 32  1  0  0  0  0
 15 33  1  0  0  0  0
 16 34  1  0  0  0  0
 16 35  1  0  0  0  0
 16 36  1  0  0  0  0
 18 37  1  0  0  0  0
 18 38  1  0  0  0  0
 19 39  1  0  0  0  0
 19 40  1  0  0  0  0
 19 41  1  0  0  0  0
M  END
