 xtb: 6.7.1 (edcfbbe)
          04092514013D

 41 40  0     0  0            999 V2000
    5.7663    1.4978   -0.6434 C   0  0  0  0  0  0  0  0  0  0  0  0
    4.5007    0.7996   -1.1020 C   0  0  0  0  0  0  0  0  0  0  0  0
    3.6235    0.6850    0.0376 O   0  0  0  0  0  0  0  0  0  0  0  0
    2.0576    0.4454   -0.0935 P   0  0  0  0  0  0  0  0  0  0  0  0
    1.0690    1.7219   -1.2001 S   0  0  0  0  0  0  0  0  0  0  0  0
    1.6063    0.4958    1.4116 O   0  0  0  0  0  0  0  0  0  0  0  0
    2.2437   -0.2684    2.4716 C   0  0  0  0  0  0  0  0  0  0  0  0
    1.3298   -1.3843    2.9340 C   0  0  0  0  0  0  0  0  0  0  0  0
    1.9725   -1.5735   -0.7720 S   0  0  0  0  0  0  0  0  0  0  0  0
    0.2615   -1.6216   -1.3375 C   0  0  0  0  0  0  0  0  0  0  0  0
   -0.9265   -1.9143    0.0241 S   0  0  0  0  0  0  0  0  0  0  0  0
   -2.1639   -0.2376   -0.1810 P   0  0  0  0  0  0  0  0  0  0  0  0
   -2.4857    0.4206   -2.0048 S   0  0  0  0  0  0  0  0  0  0  0  0
   -1.5104    0.7748    0.8433 O   0  0  0  0  0  0  0  0  0  0  0  0
   -1.9378    2.1550    0.8920 C   0  0  0  0  0  0  0  0  0  0  0  0
   -1.0999    2.8558    1.9388 C   0  0  0  0  0  0  0  0  0  0  0  0
   -3.4835   -0.6528    0.6063 O   0  0  0  0  0  0  0  0  0  0  0  0
   -4.5333   -1.4496    0.0180 C   0  0  0  0  0  0  0  0  0  0  0  0
   -5.8444   -1.0814    0.6853 C   0  0  0  0  0  0  0  0  0  0  0  0
    5.5278    2.4820   -0.2497 H   0  0  0  0  0  0  0  0  0  0  0  0
    6.2544    0.9167    0.1335 H   0  0  0  0  0  0  0  0  0  0  0  0
    6.4399    1.6049   -1.4875 H   0  0  0  0  0  0  0  0  0  0  0  0
    4.7115   -0.2072   -1.4718 H   0  0  0  0  0  0  0  0  0  0  0  0
    3.9887    1.3710   -1.8825 H   0  0  0  0  0  0  0  0  0  0  0  0
    3.1983   -0.6552    2.1110 H   0  0  0  0  0  0  0  0  0  0  0  0
    2.4192    0.4582    3.2665 H   0  0  0  0  0  0  0  0  0  0  0  0
    1.1999   -2.1287    2.1518 H   0  0  0  0  0  0  0  0  0  0  0  0
    1.7659   -1.8595    3.8070 H   0  0  0  0  0  0  0  0  0  0  0  0
    0.3538   -0.9825    3.1937 H   0  0  0  0  0  0  0  0  0  0  0  0
    0.1907   -2.4575   -2.0285 H   0  0  0  0  0  0  0  0  0  0  0  0
    0.0070   -0.6796   -1.8316 H   0  0  0  0  0  0  0  0  0  0  0  0
   -1.7898    2.5933   -0.1010 H   0  0  0  0  0  0  0  0  0  0  0  0
   -3.0021    2.1802    1.1401 H   0  0  0  0  0  0  0  0  0  0  0  0
   -1.2449    2.3857    2.9069 H   0  0  0  0  0  0  0  0  0  0  0  0
   -0.0489    2.7908    1.6675 H   0  0  0  0  0  0  0  0  0  0  0  0
   -1.3938    3.8990    1.9910 H   0  0  0  0  0  0  0  0  0  0  0  0
   -4.5636   -1.2501   -1.0584 H   0  0  0  0  0  0  0  0  0  0  0  0
   -4.2858   -2.5008    0.1846 H   0  0  0  0  0  0  0  0  0  0  0  0
   -6.6351   -1.7049    0.2803 H   0  0  0  0  0  0  0  0  0  0  0  0
   -5.7746   -1.2412    1.7574 H   0  0  0  0  0  0  0  0  0  0  0  0
   -6.0833   -0.0380    0.4982 H   0  0  0  0  0  0  0  0  0  0  0  0
  1  2  1  0  0  0  0
  2  3  1  0  0  0  0
  3  4  2  0  0  0  0
  4  5  2  0  0  0  0
  4  6  2  0  0  0  0
  6  7  1  0  0  0  0
  7  8  1  0  0  0  0
  4  9  1  0  0  0  0
  9 10  1  0  0  0  0
 10 11  1  0  0  0  0
 11 12  1  0  0  0  0
 12 13  2  0  0  0  0
 12 14  2  0  0  0  0
 14 15  1  0  0  0  0
 15 16  1  0  0  0  0
 12 17  2  0  0  0  0
 17 18  1  0  0  0  0
 18 19  1  0  0  0  0
  1 20  1  0  0  0  0
  1 21  1  0  0  0  0
  1 22  1  0  0  0  0
  2 23  1  0  0  0  0
  2 24  1  0  0  0  0
  7 25  1  0  0  0  0
  7 26  1  0  0  0  0
  8 27  1  0  0  0  0
  8 28  1  0  0  0  0
  8 29  1  0  0  0  0
 10 30  1  0  0  0  0
 10 31  1  0  0  0  0
 15 32  1  0  0  0  0
 15 33  1  0  0  0  0
 16 34  1  0  0  0  0
 16 35  1  0  0  0  0
 16 36  1  0  0  0  0
 18 37  1  0  0  0  0
 18 38  1  0  0  0  0
 19 39  1  0  0  0  0
 19 40  1  0  0  0  0
 19 41  1  0  0  0  0
M  END
