 xtb: 6.7.1 (edcfbbe)
          04092507313D

 38 37  0     0  0            999 V2000
    3.2820   -2.2564    1.2960 C   0  0  0  0  0  0  0  0  0  0  0  0
    2.8336   -2.9400    0.0148 C   0  0  0  0  0  0  0  0  0  0  0  0
    2.6502   -1.9694   -1.0350 O   0  0  0  0  0  0  0  0  0  0  0  0
    1.4818   -1.4056   -1.1881 C   0  0  0  0  0  0  0  0  0  0  0  0
    0.4883   -1.6919   -0.5350 O   0  0  0  0  0  0  0  0  0  0  0  0
    1.4655   -0.3736   -2.2891 C   0  0  0  0  0  0  0  0  0  0  0  0
    0.6209    0.8201   -1.8590 C   0  0  0  0  0  0  0  0  0  0  0  0
    0.6034    1.5826   -2.6424 H   0  0  0  0  0  0  0  0  0  0  0  0
    1.1605    1.4499   -0.5844 C   0  0  0  0  0  0  0  0  0  0  0  0
    2.2302    1.1454   -0.1074 O   0  0  0  0  0  0  0  0  0  0  0  0
    0.3549    2.3765   -0.1167 O   0  0  0  0  0  0  0  0  0  0  0  0
    0.7701    3.1075    1.0552 C   0  0  0  0  0  0  0  0  0  0  0  0
   -0.3090    4.1225    1.3710 C   0  0  0  0  0  0  0  0  0  0  0  0
   -1.1485    0.4049   -1.6464 S   0  0  0  0  0  0  0  0  0  0  0  0
   -1.3147   -0.2661    0.3550 P   0  0  0  0  0  0  0  0  0  0  0  0
   -0.0801   -0.2064    1.8777 S   0  0  0  0  0  0  0  0  0  0  0  0
   -2.5394    0.7757    0.6119 O   0  0  0  0  0  0  0  0  0  0  0  0
   -3.2075    0.8270    1.8720 C   0  0  0  0  0  0  0  0  0  0  0  0
   -2.0438   -1.6863    0.3247 O   0  0  0  0  0  0  0  0  0  0  0  0
   -3.0166   -2.0174   -0.6797 C   0  0  0  0  0  0  0  0  0  0  0  0
    2.5041   -1.5859    1.6590 H   0  0  0  0  0  0  0  0  0  0  0  0
    3.4813   -3.0051    2.0553 H   0  0  0  0  0  0  0  0  0  0  0  0
    4.1802   -1.6730    1.1144 H   0  0  0  0  0  0  0  0  0  0  0  0
    1.8921   -3.4746    0.1694 H   0  0  0  0  0  0  0  0  0  0  0  0
    3.6012   -3.6129   -0.3678 H   0  0  0  0  0  0  0  0  0  0  0  0
    1.0294   -0.8202   -3.1841 H   0  0  0  0  0  0  0  0  0  0  0  0
    2.4905   -0.0635   -2.4910 H   0  0  0  0  0  0  0  0  0  0  0  0
    0.9110    2.3904    1.8711 H   0  0  0  0  0  0  0  0  0  0  0  0
    1.7325    3.5785    0.8350 H   0  0  0  0  0  0  0  0  0  0  0  0
   -0.4317    4.8094    0.5391 H   0  0  0  0  0  0  0  0  0  0  0  0
   -1.2517    3.6118    1.5469 H   0  0  0  0  0  0  0  0  0  0  0  0
   -0.0292    4.6753    2.2612 H   0  0  0  0  0  0  0  0  0  0  0  0
   -3.7359   -0.1081    2.0632 H   0  0  0  0  0  0  0  0  0  0  0  0
   -3.9078    1.6552    1.7990 H   0  0  0  0  0  0  0  0  0  0  0  0
   -2.4858    1.0010    2.6727 H   0  0  0  0  0  0  0  0  0  0  0  0
   -3.6283   -1.1479   -0.9249 H   0  0  0  0  0  0  0  0  0  0  0  0
   -3.6245   -2.8080   -0.2460 H   0  0  0  0  0  0  0  0  0  0  0  0
   -2.5053   -2.3741   -1.5728 H   0  0  0  0  0  0  0  0  0  0  0  0
  1  2  1  0  0  0  0
  2  3  1  0  0  0  0
  3  4  4  0  0  0  0
  4  5  2  0  0  0  0
  4  6  1  0  0  0  0
  6  7  1  0  0  0  0
  7  8  1  0  0  0  0
  7  9  1  0  0  0  0
  9 10  2  0  0  0  0
  9 11  1  0  0  0  0
 11 12  1  0  0  0  0
 12 13  1  0  0  0  0
  7 14  1  0  0  0  0
 14 15  1  0  0  0  0
 15 16  2  0  0  0  0
 15 17  1  0  0  0  0
 17 18  1  0  0  0  0
 15 19  1  0  0  0  0
 19 20  1  0  0  0  0
  1 21  1  0  0  0  0
  1 22  1  0  0  0  0
  1 23  1  0  0  0  0
  2 24  1  0  0  0  0
  2 25  1  0  0  0  0
  6 26  1  0  0  0  0
  6 27  1  0  0  0  0
 12 28  1  0  0  0  0
 12 29  1  0  0  0  0
 13 30  1  0  0  0  0
 13 31  1  0  0  0  0
 13 32  1  0  0  0  0
 18 33  1  0  0  0  0
 18 34  1  0  0  0  0
 18 35  1  0  0  0  0
 20 36  1  0  0  0  0
 20 37  1  0  0  0  0
 20 38  1  0  0  0  0
M  END
