 xtb: 6.7.1 (edcfbbe)
          04092507313D

 38 37  0     0  0            999 V2000
    4.3111   -3.7234   -1.0019 C   0  0  0  0  0  0  0  0  0  0  0  0
    2.7950   -3.7256   -0.8872 C   0  0  0  0  0  0  0  0  0  0  0  0
    2.3212   -2.5091   -0.2765 O   0  0  0  0  0  0  0  0  0  0  0  0
    2.1354   -1.4542   -1.0432 C   0  0  0  0  0  0  0  0  0  0  0  0
    2.2890   -1.4356   -2.2443 O   0  0  0  0  0  0  0  0  0  0  0  0
    1.6902   -0.2529   -0.2308 C   0  0  0  0  0  0  0  0  0  0  0  0
    0.6388    0.5327   -1.0015 C   0  0  0  0  0  0  0  0  0  0  0  0
    1.0024    0.7108   -2.0205 H   0  0  0  0  0  0  0  0  0  0  0  0
    0.2777    1.8695   -0.3838 C   0  0  0  0  0  0  0  0  0  0  0  0
   -0.8520    2.3184   -0.4189 O   0  0  0  0  0  0  0  0  0  0  0  0
    1.3078    2.4774    0.1338 O   0  0  0  0  0  0  0  0  0  0  0  0
    1.0801    3.7497    0.7777 C   0  0  0  0  0  0  0  0  0  0  0  0
    2.3470    4.1316    1.5152 C   0  0  0  0  0  0  0  0  0  0  0  0
   -0.8999   -0.4174   -1.2358 S   0  0  0  0  0  0  0  0  0  0  0  0
   -1.8934    0.0182    0.5978 P   0  0  0  0  0  0  0  0  0  0  0  0
   -0.8155    0.5044    2.1568 S   0  0  0  0  0  0  0  0  0  0  0  0
   -3.1091    0.9935    0.3571 O   0  0  0  0  0  0  0  0  0  0  0  0
   -4.0083    0.8654   -0.7607 C   0  0  0  0  0  0  0  0  0  0  0  0
   -2.7004   -1.3551    0.8063 O   0  0  0  0  0  0  0  0  0  0  0  0
   -2.0233   -2.5675    1.1496 C   0  0  0  0  0  0  0  0  0  0  0  0
    4.6422   -4.6795   -1.3936 H   0  0  0  0  0  0  0  0  0  0  0  0
    4.6342   -2.9348   -1.6776 H   0  0  0  0  0  0  0  0  0  0  0  0
    4.7600   -3.5608   -0.0259 H   0  0  0  0  0  0  0  0  0  0  0  0
    2.4480   -4.5160   -0.2219 H   0  0  0  0  0  0  0  0  0  0  0  0
    2.3318   -3.8226   -1.8732 H   0  0  0  0  0  0  0  0  0  0  0  0
    2.5572    0.3919   -0.0693 H   0  0  0  0  0  0  0  0  0  0  0  0
    1.3185   -0.5817    0.7406 H   0  0  0  0  0  0  0  0  0  0  0  0
    0.8180    4.4795    0.0061 H   0  0  0  0  0  0  0  0  0  0  0  0
    0.2284    3.6371    1.4560 H   0  0  0  0  0  0  0  0  0  0  0  0
    2.5734    3.3868    2.2722 H   0  0  0  0  0  0  0  0  0  0  0  0
    3.1782    4.1966    0.8199 H   0  0  0  0  0  0  0  0  0  0  0  0
    2.2028    5.0941    1.9941 H   0  0  0  0  0  0  0  0  0  0  0  0
   -4.7729    1.6193   -0.5934 H   0  0  0  0  0  0  0  0  0  0  0  0
   -4.4413   -0.1332   -0.7806 H   0  0  0  0  0  0  0  0  0  0  0  0
   -3.4698    1.0651   -1.6869 H   0  0  0  0  0  0  0  0  0  0  0  0
   -2.8052   -3.2754    1.4116 H   0  0  0  0  0  0  0  0  0  0  0  0
   -1.3609   -2.3983    2.0003 H   0  0  0  0  0  0  0  0  0  0  0  0
   -1.4489   -2.9271    0.2957 H   0  0  0  0  0  0  0  0  0  0  0  0
  1  2  1  0  0  0  0
  2  3  1  0  0  0  0
  3  4  1  0  0  0  0
  4  5  2  0  0  0  0
  4  6  1  0  0  0  0
  6  7  1  0  0  0  0
  7  8  1  0  0  0  0
  7  9  1  0  0  0  0
  9 10  2  0  0  0  0
  9 11  4  0  0  0  0
 11 12  1  0  0  0  0
 12 13  1  0  0  0  0
  7 14  1  0  0  0  0
 14 15  1  0  0  0  0
 15 16  2  0  0  0  0
 15 17  2  0  0  0  0
 17 18  1  0  0  0  0
 15 19  1  0  0  0  0
 19 20  1  0  0  0  0
  1 21  1  0  0  0  0
  1 22  1  0  0  0  0
  1 23  1  0  0  0  0
  2 24  1  0  0  0  0
  2 25  1  0  0  0  0
  6 26  1  0  0  0  0
  6 27  1  0  0  0  0
 12 28  1  0  0  0  0
 12 29  1  0  0  0  0
 13 30  1  0  0  0  0
 13 31  1  0  0  0  0
 13 32  1  0  0  0  0
 18 33  1  0  0  0  0
 18 34  1  0  0  0  0
 18 35  1  0  0  0  0
 20 36  1  0  0  0  0
 20 37  1  0  0  0  0
 20 38  1  0  0  0  0
M  END
