 xtb: 6.7.1 (edcfbbe)
          04092505203D

 41 40  0     0  0            999 V2000
    5.7452    1.2349   -0.3888 C   0  0  0  0  0  0  0  0  0  0  0  0
    4.4422    0.7051   -0.9513 C   0  0  0  0  0  0  0  0  0  0  0  0
    3.5378    0.4945    0.1540 O   0  0  0  0  0  0  0  0  0  0  0  0
    1.9881    0.2656   -0.0886 P   0  0  0  0  0  0  0  0  0  0  0  0
    1.0866    1.6425   -1.1542 S   0  0  0  0  0  0  0  0  0  0  0  0
    1.4183    0.1903    1.3748 O   0  0  0  0  0  0  0  0  0  0  0  0
    2.0852   -0.3787    2.5322 C   0  0  0  0  0  0  0  0  0  0  0  0
    2.3382   -1.8648    2.3930 C   0  0  0  0  0  0  0  0  0  0  0  0
    1.9279   -1.6607   -0.9925 S   0  0  0  0  0  0  0  0  0  0  0  0
    0.1645   -1.6998   -1.3630 C   0  0  0  0  0  0  0  0  0  0  0  0
   -0.8677   -1.7736    0.1421 S   0  0  0  0  0  0  0  0  0  0  0  0
   -2.0150   -0.0263   -0.0707 P   0  0  0  0  0  0  0  0  0  0  0  0
   -2.3212    0.6050   -1.9059 S   0  0  0  0  0  0  0  0  0  0  0  0
   -1.3479    0.9655    0.9636 O   0  0  0  0  0  0  0  0  0  0  0  0
   -1.5870    2.3866    0.9310 C   0  0  0  0  0  0  0  0  0  0  0  0
   -3.0244    2.7258    1.2591 C   0  0  0  0  0  0  0  0  0  0  0  0
   -3.3429   -0.4213    0.7108 O   0  0  0  0  0  0  0  0  0  0  0  0
   -4.3384   -1.2774    0.1168 C   0  0  0  0  0  0  0  0  0  0  0  0
   -5.6173   -1.1311    0.9164 C   0  0  0  0  0  0  0  0  0  0  0  0
    6.1660    0.5201    0.3121 H   0  0  0  0  0  0  0  0  0  0  0  0
    6.4441    1.3934   -1.2033 H   0  0  0  0  0  0  0  0  0  0  0  0
    5.5751    2.1769    0.1251 H   0  0  0  0  0  0  0  0  0  0  0  0
    4.5838   -0.2514   -1.4610 H   0  0  0  0  0  0  0  0  0  0  0  0
    3.9828    1.4161   -1.6456 H   0  0  0  0  0  0  0  0  0  0  0  0
    3.0165    0.1683    2.6873 H   0  0  0  0  0  0  0  0  0  0  0  0
    1.3852   -0.1665    3.3420 H   0  0  0  0  0  0  0  0  0  0  0  0
    3.0777   -2.0570    1.6188 H   0  0  0  0  0  0  0  0  0  0  0  0
    2.7106   -2.2456    3.3391 H   0  0  0  0  0  0  0  0  0  0  0  0
    1.4167   -2.3841    2.1378 H   0  0  0  0  0  0  0  0  0  0  0  0
   -0.0064   -2.6093   -1.9329 H   0  0  0  0  0  0  0  0  0  0  0  0
   -0.1205   -0.8140   -1.9380 H   0  0  0  0  0  0  0  0  0  0  0  0
   -0.8903    2.7814    1.6721 H   0  0  0  0  0  0  0  0  0  0  0  0
   -1.3099    2.7612   -0.0605 H   0  0  0  0  0  0  0  0  0  0  0  0
   -3.3094    2.2738    2.2056 H   0  0  0  0  0  0  0  0  0  0  0  0
   -3.1325    3.8042    1.3211 H   0  0  0  0  0  0  0  0  0  0  0  0
   -3.6794    2.3485    0.4745 H   0  0  0  0  0  0  0  0  0  0  0  0
   -4.4774   -0.9759   -0.9271 H   0  0  0  0  0  0  0  0  0  0  0  0
   -3.9656   -2.3050    0.1449 H   0  0  0  0  0  0  0  0  0  0  0  0
   -5.9750   -0.1065    0.8687 H   0  0  0  0  0  0  0  0  0  0  0  0
   -6.3714   -1.7932    0.5039 H   0  0  0  0  0  0  0  0  0  0  0  0
   -5.4353   -1.3929    1.9546 H   0  0  0  0  0  0  0  0  0  0  0  0
  1  2  1  0  0  0  0
  2  3  1  0  0  0  0
  3  4  2  0  0  0  0
  4  5  2  0  0  0  0
  4  6  2  0  0  0  0
  6  7  1  0  0  0  0
  7  8  1  0  0  0  0
  4  9  1  0  0  0  0
  9 10  1  0  0  0  0
 10 11  1  0  0  0  0
 11 12  1  0  0  0  0
 12 13  2  0  0  0  0
 12 14  2  0  0  0  0
 14 15  1  0  0  0  0
 15 16  1  0  0  0  0
 12 17  2  0  0  0  0
 17 18  1  0  0  0  0
 18 19  1  0  0  0  0
  1 20  1  0  0  0  0
  1 21  1  0  0  0  0
  1 22  1  0  0  0  0
  2 23  1  0  0  0  0
  2 24  1  0  0  0  0
  7 25  1  0  0  0  0
  7 26  1  0  0  0  0
  8 27  1  0  0  0  0
  8 28  1  0  0  0  0
  8 29  1  0  0  0  0
 10 30  1  0  0  0  0
 10 31  1  0  0  0  0
 15 32  1  0  0  0  0
 15 33  1  0  0  0  0
 16 34  1  0  0  0  0
 16 35  1  0  0  0  0
 16 36  1  0  0  0  0
 18 37  1  0  0  0  0
 18 38  1  0  0  0  0
 19 39  1  0  0  0  0
 19 40  1  0  0  0  0
 19 41  1  0  0  0  0
M  END
