 xtb: 6.7.1 (edcfbbe)
          04092507313D

 38 37  0     0  0            999 V2000
    4.9464    0.3112   -0.8691 C   0  0  0  0  0  0  0  0  0  0  0  0
    4.4624   -1.0074   -1.4492 C   0  0  0  0  0  0  0  0  0  0  0  0
    3.0231   -1.0729   -1.4482 O   0  0  0  0  0  0  0  0  0  0  0  0
    2.4157   -1.5736   -0.3874 C   0  0  0  0  0  0  0  0  0  0  0  0
    2.9830   -2.0172    0.5836 O   0  0  0  0  0  0  0  0  0  0  0  0
    0.9070   -1.5823   -0.5629 C   0  0  0  0  0  0  0  0  0  0  0  0
    0.3948   -0.2267   -1.0417 C   0  0  0  0  0  0  0  0  0  0  0  0
    0.9218    0.0613   -1.9569 H   0  0  0  0  0  0  0  0  0  0  0  0
    0.5861    0.8713   -0.0134 C   0  0  0  0  0  0  0  0  0  0  0  0
   -0.2852    1.6739    0.2559 O   0  0  0  0  0  0  0  0  0  0  0  0
    1.7788    0.8453    0.5182 O   0  0  0  0  0  0  0  0  0  0  0  0
    2.0864    1.8136    1.5442 C   0  0  0  0  0  0  0  0  0  0  0  0
    2.5405    3.1314    0.9398 C   0  0  0  0  0  0  0  0  0  0  0  0
   -1.3645   -0.2704   -1.5094 S   0  0  0  0  0  0  0  0  0  0  0  0
   -2.3335    0.0085    0.3634 P   0  0  0  0  0  0  0  0  0  0  0  0
   -1.4387   -0.5888    2.0027 S   0  0  0  0  0  0  0  0  0  0  0  0
   -2.9590    1.4536    0.4685 O   0  0  0  0  0  0  0  0  0  0  0  0
   -3.6681    2.0767   -0.6200 C   0  0  0  0  0  0  0  0  0  0  0  0
   -3.6820   -0.8199    0.0754 O   0  0  0  0  0  0  0  0  0  0  0  0
   -3.6787   -2.2463   -0.0223 C   0  0  0  0  0  0  0  0  0  0  0  0
    4.5289    1.1426   -1.4306 H   0  0  0  0  0  0  0  0  0  0  0  0
    4.6377    0.3925    0.1701 H   0  0  0  0  0  0  0  0  0  0  0  0
    6.0294    0.3512   -0.9218 H   0  0  0  0  0  0  0  0  0  0  0  0
    4.8497   -1.8502   -0.8699 H   0  0  0  0  0  0  0  0  0  0  0  0
    4.7401   -1.1069   -2.4989 H   0  0  0  0  0  0  0  0  0  0  0  0
    0.4530   -1.8610    0.3903 H   0  0  0  0  0  0  0  0  0  0  0  0
    0.6591   -2.3355   -1.3133 H   0  0  0  0  0  0  0  0  0  0  0  0
    1.1949    1.9507    2.1631 H   0  0  0  0  0  0  0  0  0  0  0  0
    2.8763    1.3403    2.1281 H   0  0  0  0  0  0  0  0  0  0  0  0
    2.8125    3.8110    1.7406 H   0  0  0  0  0  0  0  0  0  0  0  0
    3.4012    2.9746    0.2958 H   0  0  0  0  0  0  0  0  0  0  0  0
    1.7339    3.5749    0.3607 H   0  0  0  0  0  0  0  0  0  0  0  0
   -2.9864    2.2460   -1.4534 H   0  0  0  0  0  0  0  0  0  0  0  0
   -4.0234    3.0219   -0.2181 H   0  0  0  0  0  0  0  0  0  0  0  0
   -4.5001    1.4481   -0.9328 H   0  0  0  0  0  0  0  0  0  0  0  0
   -3.2388   -2.5514   -0.9716 H   0  0  0  0  0  0  0  0  0  0  0  0
   -4.7219   -2.5467    0.0315 H   0  0  0  0  0  0  0  0  0  0  0  0
   -3.1163   -2.6776    0.8077 H   0  0  0  0  0  0  0  0  0  0  0  0
  1  2  1  0  0  0  0
  2  3  1  0  0  0  0
  3  4  1  0  0  0  0
  4  5  2  0  0  0  0
  4  6  1  0  0  0  0
  6  7  1  0  0  0  0
  7  8  1  0  0  0  0
  7  9  1  0  0  0  0
  9 10  2  0  0  0  0
  9 11  4  0  0  0  0
 11 12  1  0  0  0  0
 12 13  1  0  0  0  0
  7 14  1  0  0  0  0
 14 15  1  0  0  0  0
 15 16  2  0  0  0  0
 15 17  2  0  0  0  0
 17 18  1  0  0  0  0
 15 19  1  0  0  0  0
 19 20  1  0  0  0  0
  1 21  1  0  0  0  0
  1 22  1  0  0  0  0
  1 23  1  0  0  0  0
  2 24  1  0  0  0  0
  2 25  1  0  0  0  0
  6 26  1  0  0  0  0
  6 27  1  0  0  0  0
 12 28  1  0  0  0  0
 12 29  1  0  0  0  0
 13 30  1  0  0  0  0
 13 31  1  0  0  0  0
 13 32  1  0  0  0  0
 18 33  1  0  0  0  0
 18 34  1  0  0  0  0
 18 35  1  0  0  0  0
 20 36  1  0  0  0  0
 20 37  1  0  0  0  0
 20 38  1  0  0  0  0
M  END
