 xtb: 6.7.1 (edcfbbe)
          04032520013D

 18 18  0     0  0            999 V2000
   -0.7257   -1.2526    0.2414 C   0  0  0  0  0  0  0  0  0  0  0  0
   -1.4477    0.0022   -0.2417 C   0  0  0  0  0  0  0  0  0  0  0  0
   -0.7218    1.2547    0.2419 C   0  0  0  0  0  0  0  0  0  0  0  0
    0.7256    1.2526   -0.2419 C   0  0  0  0  0  0  0  0  0  0  0  0
    1.4476   -0.0021    0.2416 C   0  0  0  0  0  0  0  0  0  0  0  0
    0.7220   -1.2548   -0.2414 C   0  0  0  0  0  0  0  0  0  0  0  0
   -1.2415   -2.1429   -0.1245 H   0  0  0  0  0  0  0  0  0  0  0  0
   -0.7422   -1.2807    1.3336 H   0  0  0  0  0  0  0  0  0  0  0  0
   -1.4800    0.0026   -1.3337 H   0  0  0  0  0  0  0  0  0  0  0  0
   -2.4766    0.0036    0.1241 H   0  0  0  0  0  0  0  0  0  0  0  0
   -1.2351    2.1467   -0.1231 H   0  0  0  0  0  0  0  0  0  0  0  0
   -0.7376    1.2821    1.3340 H   0  0  0  0  0  0  0  0  0  0  0  0
    0.7413    1.2802   -1.3339 H   0  0  0  0  0  0  0  0  0  0  0  0
    1.2415    2.1431    0.1233 H   0  0  0  0  0  0  0  0  0  0  0  0
    2.4766   -0.0036   -0.1240 H   0  0  0  0  0  0  0  0  0  0  0  0
    1.4798   -0.0016    1.3336 H   0  0  0  0  0  0  0  0  0  0  0  0
    0.7387   -1.2833   -1.3335 H   0  0  0  0  0  0  0  0  0  0  0  0
    1.2350   -2.1465    0.1247 H   0  0  0  0  0  0  0  0  0  0  0  0
  1  2  1  0  0  0  0
  2  3  1  0  0  0  0
  3  4  1  0  0  0  0
  4  5  1  0  0  0  0
  1  6  1  0  0  0  0
  5  6  1  0  0  0  0
  1  7  1  0  0  0  0
  1  8  1  0  0  0  0
  2  9  1  0  0  0  0
  2 10  1  0  0  0  0
  3 11  1  0  0  0  0
  3 12  1  0  0  0  0
  4 13  1  0  0  0  0
  4 14  1  0  0  0  0
  5 15  1  0  0  0  0
  5 16  1  0  0  0  0
  6 17  1  0  0  0  0
  6 18  1  0  0  0  0
M  END
