 xtb: 6.7.1 (edcfbbe)
          04092505213D

 41 40  0     0  0            999 V2000
    2.8150    0.7507   -2.3868 C   0  0  0  0  0  0  0  0  0  0  0  0
    2.6518    1.6238   -1.1601 C   0  0  0  0  0  0  0  0  0  0  0  0
    1.6513    1.1155   -0.2409 O   0  0  0  0  0  0  0  0  0  0  0  0
    1.8472   -0.0527    0.8048 P   0  0  0  0  0  0  0  0  0  0  0  0
    0.5502    0.1708    2.2578 S   0  0  0  0  0  0  0  0  0  0  0  0
    3.3777    0.0982    1.1951 O   0  0  0  0  0  0  0  0  0  0  0  0
    4.1860   -0.9374    1.7858 C   0  0  0  0  0  0  0  0  0  0  0  0
    3.5707   -1.5193    3.0405 C   0  0  0  0  0  0  0  0  0  0  0  0
    1.8199   -1.9183   -0.2340 S   0  0  0  0  0  0  0  0  0  0  0  0
    0.2732   -1.7587   -1.1583 C   0  0  0  0  0  0  0  0  0  0  0  0
   -1.2107   -1.5965   -0.1186 S   0  0  0  0  0  0  0  0  0  0  0  0
   -1.9986    0.2393   -0.8704 P   0  0  0  0  0  0  0  0  0  0  0  0
   -0.9798    1.0970   -2.2982 S   0  0  0  0  0  0  0  0  0  0  0  0
   -2.3118    1.1614    0.3874 O   0  0  0  0  0  0  0  0  0  0  0  0
   -1.5645    2.3357    0.7375 C   0  0  0  0  0  0  0  0  0  0  0  0
   -2.3085    3.5740    0.2796 C   0  0  0  0  0  0  0  0  0  0  0  0
   -3.4399   -0.1606   -1.3793 O   0  0  0  0  0  0  0  0  0  0  0  0
   -4.3283   -1.1343   -0.7855 C   0  0  0  0  0  0  0  0  0  0  0  0
   -4.5960   -0.8628    0.6788 C   0  0  0  0  0  0  0  0  0  0  0  0
    3.5331    1.2200   -3.0519 H   0  0  0  0  0  0  0  0  0  0  0  0
    3.1794   -0.2374   -2.1153 H   0  0  0  0  0  0  0  0  0  0  0  0
    1.8653    0.6580   -2.9092 H   0  0  0  0  0  0  0  0  0  0  0  0
    2.2638    2.6073   -1.4298 H   0  0  0  0  0  0  0  0  0  0  0  0
    3.5917    1.7270   -0.6165 H   0  0  0  0  0  0  0  0  0  0  0  0
    4.3415   -1.7171    1.0351 H   0  0  0  0  0  0  0  0  0  0  0  0
    5.1296   -0.4327    2.0007 H   0  0  0  0  0  0  0  0  0  0  0  0
    4.2567   -2.2368    3.4788 H   0  0  0  0  0  0  0  0  0  0  0  0
    3.3607   -0.7327    3.7616 H   0  0  0  0  0  0  0  0  0  0  0  0
    2.6353   -2.0235    2.8006 H   0  0  0  0  0  0  0  0  0  0  0  0
    0.1879   -2.6836   -1.7235 H   0  0  0  0  0  0  0  0  0  0  0  0
    0.3208   -0.8920   -1.8237 H   0  0  0  0  0  0  0  0  0  0  0  0
   -1.4585    2.2988    1.8236 H   0  0  0  0  0  0  0  0  0  0  0  0
   -0.5708    2.2883    0.2818 H   0  0  0  0  0  0  0  0  0  0  0  0
   -1.7613    4.4563    0.5953 H   0  0  0  0  0  0  0  0  0  0  0  0
   -2.3929    3.5744   -0.8057 H   0  0  0  0  0  0  0  0  0  0  0  0
   -3.3048    3.5921    0.7119 H   0  0  0  0  0  0  0  0  0  0  0  0
   -5.2339   -1.0440   -1.3871 H   0  0  0  0  0  0  0  0  0  0  0  0
   -3.8876   -2.1255   -0.9220 H   0  0  0  0  0  0  0  0  0  0  0  0
   -3.6720   -0.9440    1.2508 H   0  0  0  0  0  0  0  0  0  0  0  0
   -5.0002    0.1373    0.8119 H   0  0  0  0  0  0  0  0  0  0  0  0
   -5.3069   -1.5927    1.0535 H   0  0  0  0  0  0  0  0  0  0  0  0
  1  2  1  0  0  0  0
  2  3  1  0  0  0  0
  3  4  2  0  0  0  0
  4  5  2  0  0  0  0
  4  6  2  0  0  0  0
  6  7  1  0  0  0  0
  7  8  1  0  0  0  0
  4  9  1  0  0  0  0
  9 10  1  0  0  0  0
 10 11  1  0  0  0  0
 11 12  1  0  0  0  0
 12 13  2  0  0  0  0
 12 14  2  0  0  0  0
 14 15  1  0  0  0  0
 15 16  1  0  0  0  0
 12 17  2  0  0  0  0
 17 18  1  0  0  0  0
 18 19  1  0  0  0  0
  1 20  1  0  0  0  0
  1 21  1  0  0  0  0
  1 22  1  0  0  0  0
  2 23  1  0  0  0  0
  2 24  1  0  0  0  0
  7 25  1  0  0  0  0
  7 26  1  0  0  0  0
  8 27  1  0  0  0  0
  8 28  1  0  0  0  0
  8 29  1  0  0  0  0
 10 30  1  0  0  0  0
 10 31  1  0  0  0  0
 15 32  1  0  0  0  0
 15 33  1  0  0  0  0
 16 34  1  0  0  0  0
 16 35  1  0  0  0  0
 16 36  1  0  0  0  0
 18 37  1  0  0  0  0
 18 38  1  0  0  0  0
 19 39  1  0  0  0  0
 19 40  1  0  0  0  0
 19 41  1  0  0  0  0
M  END
