 xtb: 6.7.1 (edcfbbe)
          04092505213D

 41 40  0     0  0            999 V2000
    4.1031   -1.2830   -2.6803 C   0  0  0  0  0  0  0  0  0  0  0  0
    4.2543    0.0522   -1.9815 C   0  0  0  0  0  0  0  0  0  0  0  0
    3.6719    0.0418   -0.6653 O   0  0  0  0  0  0  0  0  0  0  0  0
    2.1038   -0.0668   -0.4304 P   0  0  0  0  0  0  0  0  0  0  0  0
    1.0402    0.9428   -1.7417 S   0  0  0  0  0  0  0  0  0  0  0  0
    1.9880    0.3393    1.0948 O   0  0  0  0  0  0  0  0  0  0  0  0
    2.4117    1.6299    1.5913 C   0  0  0  0  0  0  0  0  0  0  0  0
    2.1534    1.6475    3.0823 C   0  0  0  0  0  0  0  0  0  0  0  0
    1.6800   -2.1146   -0.2805 S   0  0  0  0  0  0  0  0  0  0  0  0
   -0.1027   -2.0374   -0.5964 C   0  0  0  0  0  0  0  0  0  0  0  0
   -1.0862   -1.6344    0.8851 S   0  0  0  0  0  0  0  0  0  0  0  0
   -1.8886    0.2845    0.5045 P   0  0  0  0  0  0  0  0  0  0  0  0
   -0.9911    1.9397    1.0221 S   0  0  0  0  0  0  0  0  0  0  0  0
   -3.2582    0.2289    1.3046 O   0  0  0  0  0  0  0  0  0  0  0  0
   -4.2446   -0.8181    1.1417 C   0  0  0  0  0  0  0  0  0  0  0  0
   -4.2722   -1.7079    2.3682 C   0  0  0  0  0  0  0  0  0  0  0  0
   -2.2295    0.0991   -1.0481 O   0  0  0  0  0  0  0  0  0  0  0  0
   -2.4708    1.2253   -1.9102 C   0  0  0  0  0  0  0  0  0  0  0  0
   -3.7991    1.8847   -1.6045 C   0  0  0  0  0  0  0  0  0  0  0  0
    4.6641   -1.2662   -3.6091 H   0  0  0  0  0  0  0  0  0  0  0  0
    4.4733   -2.0850   -2.0470 H   0  0  0  0  0  0  0  0  0  0  0  0
    3.0535   -1.4680   -2.9042 H   0  0  0  0  0  0  0  0  0  0  0  0
    3.7780    0.8482   -2.5628 H   0  0  0  0  0  0  0  0  0  0  0  0
    5.3013    0.2989   -1.8006 H   0  0  0  0  0  0  0  0  0  0  0  0
    3.4727    1.7514    1.3609 H   0  0  0  0  0  0  0  0  0  0  0  0
    1.8330    2.4056    1.0799 H   0  0  0  0  0  0  0  0  0  0  0  0
    2.6693    0.8190    3.5589 H   0  0  0  0  0  0  0  0  0  0  0  0
    2.5097    2.5862    3.4934 H   0  0  0  0  0  0  0  0  0  0  0  0
    1.0863    1.5590    3.2695 H   0  0  0  0  0  0  0  0  0  0  0  0
   -0.4014   -3.0353   -0.9054 H   0  0  0  0  0  0  0  0  0  0  0  0
   -0.3012   -1.2981   -1.3730 H   0  0  0  0  0  0  0  0  0  0  0  0
   -5.1928   -0.2919    1.0161 H   0  0  0  0  0  0  0  0  0  0  0  0
   -4.0168   -1.3899    0.2387 H   0  0  0  0  0  0  0  0  0  0  0  0
   -3.3224   -2.2255    2.4827 H   0  0  0  0  0  0  0  0  0  0  0  0
   -4.4528   -1.1083    3.2559 H   0  0  0  0  0  0  0  0  0  0  0  0
   -5.0674   -2.4385    2.2596 H   0  0  0  0  0  0  0  0  0  0  0  0
   -1.6452    1.9355   -1.7974 H   0  0  0  0  0  0  0  0  0  0  0  0
   -2.4443    0.7997   -2.9145 H   0  0  0  0  0  0  0  0  0  0  0  0
   -3.9629    2.6986   -2.3036 H   0  0  0  0  0  0  0  0  0  0  0  0
   -4.6083    1.1642   -1.6923 H   0  0  0  0  0  0  0  0  0  0  0  0
   -3.7856    2.2864   -0.5914 H   0  0  0  0  0  0  0  0  0  0  0  0
  1  2  1  0  0  0  0
  2  3  1  0  0  0  0
  3  4  2  0  0  0  0
  4  5  2  0  0  0  0
  4  6  2  0  0  0  0
  6  7  1  0  0  0  0
  7  8  1  0  0  0  0
  4  9  1  0  0  0  0
  9 10  1  0  0  0  0
 10 11  1  0  0  0  0
 11 12  1  0  0  0  0
 12 13  2  0  0  0  0
 12 14  2  0  0  0  0
 14 15  1  0  0  0  0
 15 16  1  0  0  0  0
 12 17  1  0  0  0  0
 17 18  1  0  0  0  0
 18 19  1  0  0  0  0
  1 20  1  0  0  0  0
  1 21  1  0  0  0  0
  1 22  1  0  0  0  0
  2 23  1  0  0  0  0
  2 24  1  0  0  0  0
  7 25  1  0  0  0  0
  7 26  1  0  0  0  0
  8 27  1  0  0  0  0
  8 28  1  0  0  0  0
  8 29  1  0  0  0  0
 10 30  1  0  0  0  0
 10 31  1  0  0  0  0
 15 32  1  0  0  0  0
 15 33  1  0  0  0  0
 16 34  1  0  0  0  0
 16 35  1  0  0  0  0
 16 36  1  0  0  0  0
 18 37  1  0  0  0  0
 18 38  1  0  0  0  0
 19 39  1  0  0  0  0
 19 40  1  0  0  0  0
 19 41  1  0  0  0  0
M  END
