 xtb: 6.7.1 (edcfbbe)
          04092505213D

 41 40  0     0  0            999 V2000
    5.7614   -1.3713   -0.7725 C   0  0  0  0  0  0  0  0  0  0  0  0
    4.8167   -0.2032   -0.5793 C   0  0  0  0  0  0  0  0  0  0  0  0
    3.5422   -0.7298   -0.1452 O   0  0  0  0  0  0  0  0  0  0  0  0
    2.2088    0.1007   -0.3368 P   0  0  0  0  0  0  0  0  0  0  0  0
    1.9049    0.7918   -2.1491 S   0  0  0  0  0  0  0  0  0  0  0  0
    2.3802    1.2083    0.7947 O   0  0  0  0  0  0  0  0  0  0  0  0
    1.6842    2.4641    0.8409 C   0  0  0  0  0  0  0  0  0  0  0  0
    2.6369    3.5145    1.3747 C   0  0  0  0  0  0  0  0  0  0  0  0
    0.9012   -1.3484    0.4394 S   0  0  0  0  0  0  0  0  0  0  0  0
   -0.1795   -1.6292   -1.0146 C   0  0  0  0  0  0  0  0  0  0  0  0
   -1.8978   -1.8416   -0.5214 S   0  0  0  0  0  0  0  0  0  0  0  0
   -2.1921    0.0853    0.3403 P   0  0  0  0  0  0  0  0  0  0  0  0
   -1.3097    1.5827   -0.5647 S   0  0  0  0  0  0  0  0  0  0  0  0
   -1.7298   -0.0072    1.8437 O   0  0  0  0  0  0  0  0  0  0  0  0
   -1.8680   -1.1485    2.7270 C   0  0  0  0  0  0  0  0  0  0  0  0
   -3.2923   -1.6489    2.8228 C   0  0  0  0  0  0  0  0  0  0  0  0
   -3.7684    0.2252    0.4642 O   0  0  0  0  0  0  0  0  0  0  0  0
   -4.5928    0.7481   -0.5918 C   0  0  0  0  0  0  0  0  0  0  0  0
   -4.6137   -0.1541   -1.8086 C   0  0  0  0  0  0  0  0  0  0  0  0
    5.8566   -1.9265    0.1560 H   0  0  0  0  0  0  0  0  0  0  0  0
    5.3800   -2.0360   -1.5423 H   0  0  0  0  0  0  0  0  0  0  0  0
    6.7347   -0.9964   -1.0717 H   0  0  0  0  0  0  0  0  0  0  0  0
    4.6647    0.3499   -1.5128 H   0  0  0  0  0  0  0  0  0  0  0  0
    5.1772    0.4829    0.1906 H   0  0  0  0  0  0  0  0  0  0  0  0
    1.3317    2.7157   -0.1653 H   0  0  0  0  0  0  0  0  0  0  0  0
    0.8151    2.3404    1.4928 H   0  0  0  0  0  0  0  0  0  0  0  0
    3.4764    3.6377    0.6957 H   0  0  0  0  0  0  0  0  0  0  0  0
    2.1079    4.4576    1.4635 H   0  0  0  0  0  0  0  0  0  0  0  0
    3.0088    3.2146    2.3502 H   0  0  0  0  0  0  0  0  0  0  0  0
    0.1165   -2.5521   -1.5067 H   0  0  0  0  0  0  0  0  0  0  0  0
   -0.0814   -0.7711   -1.6858 H   0  0  0  0  0  0  0  0  0  0  0  0
   -1.1939   -1.9330    2.3702 H   0  0  0  0  0  0  0  0  0  0  0  0
   -1.5084   -0.7642    3.6825 H   0  0  0  0  0  0  0  0  0  0  0  0
   -3.3394   -2.4351    3.5699 H   0  0  0  0  0  0  0  0  0  0  0  0
   -3.9576   -0.8387    3.1090 H   0  0  0  0  0  0  0  0  0  0  0  0
   -3.6166   -2.0501    1.8649 H   0  0  0  0  0  0  0  0  0  0  0  0
   -5.5792    0.8284   -0.1329 H   0  0  0  0  0  0  0  0  0  0  0  0
   -4.2242    1.7438   -0.8578 H   0  0  0  0  0  0  0  0  0  0  0  0
   -4.8634   -1.1724   -1.5222 H   0  0  0  0  0  0  0  0  0  0  0  0
   -5.3515    0.2144   -2.5141 H   0  0  0  0  0  0  0  0  0  0  0  0
   -3.6374   -0.1537   -2.2909 H   0  0  0  0  0  0  0  0  0  0  0  0
  1  2  1  0  0  0  0
  2  3  1  0  0  0  0
  3  4  2  0  0  0  0
  4  5  2  0  0  0  0
  4  6  2  0  0  0  0
  6  7  1  0  0  0  0
  7  8  1  0  0  0  0
  4  9  1  0  0  0  0
  9 10  1  0  0  0  0
 10 11  1  0  0  0  0
 11 12  1  0  0  0  0
 12 13  2  0  0  0  0
 12 14  2  0  0  0  0
 14 15  1  0  0  0  0
 15 16  1  0  0  0  0
 12 17  2  0  0  0  0
 17 18  1  0  0  0  0
 18 19  1  0  0  0  0
  1 20  1  0  0  0  0
  1 21  1  0  0  0  0
  1 22  1  0  0  0  0
  2 23  1  0  0  0  0
  2 24  1  0  0  0  0
  7 25  1  0  0  0  0
  7 26  1  0  0  0  0
  8 27  1  0  0  0  0
  8 28  1  0  0  0  0
  8 29  1  0  0  0  0
 10 30  1  0  0  0  0
 10 31  1  0  0  0  0
 15 32  1  0  0  0  0
 15 33  1  0  0  0  0
 16 34  1  0  0  0  0
 16 35  1  0  0  0  0
 16 36  1  0  0  0  0
 18 37  1  0  0  0  0
 18 38  1  0  0  0  0
 19 39  1  0  0  0  0
 19 40  1  0  0  0  0
 19 41  1  0  0  0  0
M  END
