 xtb: 6.7.1 (edcfbbe)
          04092505213D

 41 40  0     0  0            999 V2000
    3.9111   -2.0793   -1.7760 C   0  0  0  0  0  0  0  0  0  0  0  0
    4.6296   -0.9195   -1.1147 C   0  0  0  0  0  0  0  0  0  0  0  0
    3.9391   -0.4596    0.0573 O   0  0  0  0  0  0  0  0  0  0  0  0
    2.5591    0.3145   -0.0079 P   0  0  0  0  0  0  0  0  0  0  0  0
    2.3218    1.4078   -1.6246 S   0  0  0  0  0  0  0  0  0  0  0  0
    2.7485    1.0174    1.3954 O   0  0  0  0  0  0  0  0  0  0  0  0
    1.7617    1.7966    2.0890 C   0  0  0  0  0  0  0  0  0  0  0  0
    1.7405    3.2315    1.6010 C   0  0  0  0  0  0  0  0  0  0  0  0
    1.0564   -1.1437    0.3648 S   0  0  0  0  0  0  0  0  0  0  0  0
    0.1856   -1.1150   -1.2463 C   0  0  0  0  0  0  0  0  0  0  0  0
   -1.5405   -1.5875   -1.0816 S   0  0  0  0  0  0  0  0  0  0  0  0
   -2.3273    0.1580   -0.1341 P   0  0  0  0  0  0  0  0  0  0  0  0
   -1.1448    1.7179   -0.0590 S   0  0  0  0  0  0  0  0  0  0  0  0
   -2.8507   -0.3383    1.2846 O   0  0  0  0  0  0  0  0  0  0  0  0
   -1.9613   -0.6102    2.3811 C   0  0  0  0  0  0  0  0  0  0  0  0
   -2.8103   -0.9472    3.5898 C   0  0  0  0  0  0  0  0  0  0  0  0
   -3.6616    0.4884   -0.8918 O   0  0  0  0  0  0  0  0  0  0  0  0
   -4.5882   -0.4653   -1.4722 C   0  0  0  0  0  0  0  0  0  0  0  0
   -5.0321   -1.5284   -0.4923 C   0  0  0  0  0  0  0  0  0  0  0  0
    3.6869   -2.8506   -1.0434 H   0  0  0  0  0  0  0  0  0  0  0  0
    2.9826   -1.7262   -2.2233 H   0  0  0  0  0  0  0  0  0  0  0  0
    4.5394   -2.4950   -2.5572 H   0  0  0  0  0  0  0  0  0  0  0  0
    4.7332   -0.0827   -1.8131 H   0  0  0  0  0  0  0  0  0  0  0  0
    5.6107   -1.2139   -0.7399 H   0  0  0  0  0  0  0  0  0  0  0  0
    0.7773    1.3367    1.9630 H   0  0  0  0  0  0  0  0  0  0  0  0
    2.0661    1.7359    3.1357 H   0  0  0  0  0  0  0  0  0  0  0  0
    1.0725    3.8132    2.2277 H   0  0  0  0  0  0  0  0  0  0  0  0
    2.7399    3.6562    1.6394 H   0  0  0  0  0  0  0  0  0  0  0  0
    1.3758    3.2738    0.5760 H   0  0  0  0  0  0  0  0  0  0  0  0
    0.6278   -1.8567   -1.9072 H   0  0  0  0  0  0  0  0  0  0  0  0
    0.2692   -0.1068   -1.6610 H   0  0  0  0  0  0  0  0  0  0  0  0
   -1.3054   -1.4429    2.1067 H   0  0  0  0  0  0  0  0  0  0  0  0
   -1.3465    0.2788    2.5582 H   0  0  0  0  0  0  0  0  0  0  0  0
   -3.4647   -0.1136    3.8280 H   0  0  0  0  0  0  0  0  0  0  0  0
   -3.4162   -1.8246    3.3848 H   0  0  0  0  0  0  0  0  0  0  0  0
   -2.1611   -1.1479    4.4355 H   0  0  0  0  0  0  0  0  0  0  0  0
   -5.4198    0.1650   -1.7908 H   0  0  0  0  0  0  0  0  0  0  0  0
   -4.1066   -0.9150   -2.3438 H   0  0  0  0  0  0  0  0  0  0  0  0
   -5.4348   -1.0683    0.4061 H   0  0  0  0  0  0  0  0  0  0  0  0
   -5.7985   -2.1398   -0.9587 H   0  0  0  0  0  0  0  0  0  0  0  0
   -4.1910   -2.1635   -0.2210 H   0  0  0  0  0  0  0  0  0  0  0  0
  1  2  1  0  0  0  0
  2  3  1  0  0  0  0
  3  4  2  0  0  0  0
  4  5  2  0  0  0  0
  4  6  2  0  0  0  0
  6  7  1  0  0  0  0
  7  8  1  0  0  0  0
  4  9  1  0  0  0  0
  9 10  1  0  0  0  0
 10 11  1  0  0  0  0
 11 12  1  0  0  0  0
 12 13  2  0  0  0  0
 12 14  2  0  0  0  0
 14 15  1  0  0  0  0
 15 16  1  0  0  0  0
 12 17  2  0  0  0  0
 17 18  1  0  0  0  0
 18 19  1  0  0  0  0
  1 20  1  0  0  0  0
  1 21  1  0  0  0  0
  1 22  1  0  0  0  0
  2 23  1  0  0  0  0
  2 24  1  0  0  0  0
  7 25  1  0  0  0  0
  7 26  1  0  0  0  0
  8 27  1  0  0  0  0
  8 28  1  0  0  0  0
  8 29  1  0  0  0  0
 10 30  1  0  0  0  0
 10 31  1  0  0  0  0
 15 32  1  0  0  0  0
 15 33  1  0  0  0  0
 16 34  1  0  0  0  0
 16 35  1  0  0  0  0
 16 36  1  0  0  0  0
 18 37  1  0  0  0  0
 18 38  1  0  0  0  0
 19 39  1  0  0  0  0
 19 40  1  0  0  0  0
 19 41  1  0  0  0  0
M  END
