 xtb: 6.7.1 (edcfbbe)
          04092505213D

 41 40  0     0  0            999 V2000
    2.8391   -2.2392   -2.5264 C   0  0  0  0  0  0  0  0  0  0  0  0
    3.5332   -1.0955   -1.8130 C   0  0  0  0  0  0  0  0  0  0  0  0
    3.0060   -0.9700   -0.4743 O   0  0  0  0  0  0  0  0  0  0  0  0
    2.2222    0.2924    0.0658 P   0  0  0  0  0  0  0  0  0  0  0  0
    1.5753    1.5379   -1.3157 S   0  0  0  0  0  0  0  0  0  0  0  0
    3.3041    0.9518    1.0284 O   0  0  0  0  0  0  0  0  0  0  0  0
    3.1714    2.2818    1.5534 C   0  0  0  0  0  0  0  0  0  0  0  0
    2.0490    2.3779    2.5673 C   0  0  0  0  0  0  0  0  0  0  0  0
    0.9563   -0.6899    1.4386 S   0  0  0  0  0  0  0  0  0  0  0  0
    0.2055   -1.9194    0.3296 C   0  0  0  0  0  0  0  0  0  0  0  0
   -0.6070   -1.1938   -1.1240 S   0  0  0  0  0  0  0  0  0  0  0  0
   -1.9664    0.1199   -0.1645 P   0  0  0  0  0  0  0  0  0  0  0  0
   -1.4331    1.8026    0.6729 S   0  0  0  0  0  0  0  0  0  0  0  0
   -2.7098   -0.9097    0.8043 O   0  0  0  0  0  0  0  0  0  0  0  0
   -3.0424   -0.6497    2.1840 C   0  0  0  0  0  0  0  0  0  0  0  0
   -2.2273   -1.5350    3.1053 C   0  0  0  0  0  0  0  0  0  0  0  0
   -2.9768    0.4229   -1.3438 O   0  0  0  0  0  0  0  0  0  0  0  0
   -3.6760   -0.6183   -2.0754 C   0  0  0  0  0  0  0  0  0  0  0  0
   -5.0542   -0.0993   -2.4302 C   0  0  0  0  0  0  0  0  0  0  0  0
    3.2718   -2.3536   -3.5149 H   0  0  0  0  0  0  0  0  0  0  0  0
    2.9691   -3.1632   -1.9702 H   0  0  0  0  0  0  0  0  0  0  0  0
    1.7757   -2.0279   -2.6274 H   0  0  0  0  0  0  0  0  0  0  0  0
    3.3816   -0.1509   -2.3453 H   0  0  0  0  0  0  0  0  0  0  0  0
    4.6014   -1.2833   -1.6944 H   0  0  0  0  0  0  0  0  0  0  0  0
    4.1434    2.4839    2.0054 H   0  0  0  0  0  0  0  0  0  0  0  0
    2.9969    2.9698    0.7192 H   0  0  0  0  0  0  0  0  0  0  0  0
    2.1684    1.6183    3.3360 H   0  0  0  0  0  0  0  0  0  0  0  0
    2.0583    3.3616    3.0255 H   0  0  0  0  0  0  0  0  0  0  0  0
    1.0848    2.2343    2.0771 H   0  0  0  0  0  0  0  0  0  0  0  0
   -0.5263   -2.4616    0.9240 H   0  0  0  0  0  0  0  0  0  0  0  0
    0.9753   -2.5851   -0.0539 H   0  0  0  0  0  0  0  0  0  0  0  0
   -2.8640    0.4093    2.3965 H   0  0  0  0  0  0  0  0  0  0  0  0
   -4.1091   -0.8659    2.2674 H   0  0  0  0  0  0  0  0  0  0  0  0
   -1.1706   -1.2813    3.0395 H   0  0  0  0  0  0  0  0  0  0  0  0
   -2.5619   -1.3770    4.1253 H   0  0  0  0  0  0  0  0  0  0  0  0
   -2.3664   -2.5805    2.8442 H   0  0  0  0  0  0  0  0  0  0  0  0
   -3.0874   -0.8348   -2.9697 H   0  0  0  0  0  0  0  0  0  0  0  0
   -3.7340   -1.5122   -1.4502 H   0  0  0  0  0  0  0  0  0  0  0  0
   -5.6199    0.1154   -1.5277 H   0  0  0  0  0  0  0  0  0  0  0  0
   -4.9675    0.8143   -3.0117 H   0  0  0  0  0  0  0  0  0  0  0  0
   -5.5772   -0.8500   -3.0140 H   0  0  0  0  0  0  0  0  0  0  0  0
  1  2  1  0  0  0  0
  2  3  1  0  0  0  0
  3  4  2  0  0  0  0
  4  5  2  0  0  0  0
  4  6  2  0  0  0  0
  6  7  1  0  0  0  0
  7  8  1  0  0  0  0
  4  9  1  0  0  0  0
  9 10  1  0  0  0  0
 10 11  1  0  0  0  0
 11 12  1  0  0  0  0
 12 13  2  0  0  0  0
 12 14  2  0  0  0  0
 14 15  1  0  0  0  0
 15 16  1  0  0  0  0
 12 17  2  0  0  0  0
 17 18  1  0  0  0  0
 18 19  1  0  0  0  0
  1 20  1  0  0  0  0
  1 21  1  0  0  0  0
  1 22  1  0  0  0  0
  2 23  1  0  0  0  0
  2 24  1  0  0  0  0
  7 25  1  0  0  0  0
  7 26  1  0  0  0  0
  8 27  1  0  0  0  0
  8 28  1  0  0  0  0
  8 29  1  0  0  0  0
 10 30  1  0  0  0  0
 10 31  1  0  0  0  0
 15 32  1  0  0  0  0
 15 33  1  0  0  0  0
 16 34  1  0  0  0  0
 16 35  1  0  0  0  0
 16 36  1  0  0  0  0
 18 37  1  0  0  0  0
 18 38  1  0  0  0  0
 19 39  1  0  0  0  0
 19 40  1  0  0  0  0
 19 41  1  0  0  0  0
M  END
