 xtb: 6.7.1 (edcfbbe)
          04032520173D

 27 27  0     0  0            999 V2000
    2.9851   -1.8377   -0.2775 C   0  0  0  0  0  0  0  0  0  0  0  0
    1.6793   -1.1639   -0.0847 C   0  0  0  0  0  0  0  0  0  0  0  0
    1.5065    0.1803   -0.0371 C   0  0  0  0  0  0  0  0  0  0  0  0
    0.2084    0.7900    0.1554 C   0  0  0  0  0  0  0  0  0  0  0  0
    0.0756    1.9787    0.4116 O   0  0  0  0  0  0  0  0  0  0  0  0
   -0.8773   -0.0819    0.0232 N   0  0  0  0  0  0  0  0  0  0  0  0
   -0.7114   -1.4335    0.2560 C   0  0  0  0  0  0  0  0  0  0  0  0
   -1.5946   -2.2012    0.5914 O   0  0  0  0  0  0  0  0  0  0  0  0
    0.5630   -1.9215    0.0890 N   0  0  0  0  0  0  0  0  0  0  0  0
   -2.2537    0.4864   -0.1457 C   0  0  0  0  0  0  0  0  0  0  0  0
   -2.1948    1.6922   -1.0918 C   0  0  0  0  0  0  0  0  0  0  0  0
   -3.1849   -0.5327   -0.8108 C   0  0  0  0  0  0  0  0  0  0  0  0
   -2.7856    0.8879    1.2289 C   0  0  0  0  0  0  0  0  0  0  0  0
    2.8448    1.2728   -0.1369 Cl  0  0  0  0  0  0  0  0  0  0  0  0
    3.7100   -1.4412    0.4293 H   0  0  0  0  0  0  0  0  0  0  0  0
    3.3617   -1.6181   -1.2744 H   0  0  0  0  0  0  0  0  0  0  0  0
    2.8956   -2.9111   -0.1531 H   0  0  0  0  0  0  0  0  0  0  0  0
    0.6521   -2.9268    0.2018 H   0  0  0  0  0  0  0  0  0  0  0  0
   -3.2085    2.0115   -1.3118 H   0  0  0  0  0  0  0  0  0  0  0  0
   -1.6622    2.5296   -0.6544 H   0  0  0  0  0  0  0  0  0  0  0  0
   -1.7055    1.4158   -2.0232 H   0  0  0  0  0  0  0  0  0  0  0  0
   -4.1070   -0.0278   -1.0812 H   0  0  0  0  0  0  0  0  0  0  0  0
   -3.4263   -1.3579   -0.1506 H   0  0  0  0  0  0  0  0  0  0  0  0
   -2.7296   -0.9308   -1.7146 H   0  0  0  0  0  0  0  0  0  0  0  0
   -3.7819    1.3071    1.1303 H   0  0  0  0  0  0  0  0  0  0  0  0
   -2.8315    0.0158    1.8776 H   0  0  0  0  0  0  0  0  0  0  0  0
   -2.1328    1.6326    1.6783 H   0  0  0  0  0  0  0  0  0  0  0  0
  1  2  1  0  0  0  0
  2  3  2  0  0  0  0
  3  4  1  0  0  0  0
  4  5  2  0  0  0  0
  4  6  1  0  0  0  0
  6  7  1  0  0  0  0
  7  8  2  0  0  0  0
  2  9  1  0  0  0  0
  7  9  1  0  0  0  0
  6 10  1  0  0  0  0
 10 11  1  0  0  0  0
 10 12  1  0  0  0  0
 10 13  1  0  0  0  0
  3 14  1  0  0  0  0
  1 15  1  0  0  0  0
  1 16  1  0  0  0  0
  1 17  1  0  0  0  0
  9 18  1  0  0  0  0
 11 19  1  0  0  0  0
 11 20  1  0  0  0  0
 11 21  1  0  0  0  0
 12 22  1  0  0  0  0
 12 23  1  0  0  0  0
 12 24  1  0  0  0  0
 13 25  1  0  0  0  0
 13 26  1  0  0  0  0
 13 27  1  0  0  0  0
M  END
