 xtb: 6.7.1 (edcfbbe)
          04092505213D

 41 40  0     0  0            999 V2000
    4.7581    1.1260   -0.9604 C   0  0  0  0  0  0  0  0  0  0  0  0
    4.5269    0.9683    0.5281 C   0  0  0  0  0  0  0  0  0  0  0  0
    3.5721   -0.0650    0.8304 O   0  0  0  0  0  0  0  0  0  0  0  0
    2.0437    0.0305    0.4066 P   0  0  0  0  0  0  0  0  0  0  0  0
    1.2057    1.7845    0.6120 S   0  0  0  0  0  0  0  0  0  0  0  0
    1.3670   -1.0671    1.3180 O   0  0  0  0  0  0  0  0  0  0  0  0
    1.8289   -2.4406    1.3773 C   0  0  0  0  0  0  0  0  0  0  0  0
    2.6951   -2.6580    2.6006 C   0  0  0  0  0  0  0  0  0  0  0  0
    1.9996   -0.8027   -1.5601 S   0  0  0  0  0  0  0  0  0  0  0  0
    0.3286   -0.2757   -1.9562 C   0  0  0  0  0  0  0  0  0  0  0  0
   -0.9380   -1.3506   -1.1648 S   0  0  0  0  0  0  0  0  0  0  0  0
   -2.3710    0.0426   -0.4873 P   0  0  0  0  0  0  0  0  0  0  0  0
   -4.2251   -0.5865   -0.4205 S   0  0  0  0  0  0  0  0  0  0  0  0
   -2.0669    1.2210   -1.5040 O   0  0  0  0  0  0  0  0  0  0  0  0
   -3.0143    2.2879   -1.7255 C   0  0  0  0  0  0  0  0  0  0  0  0
   -3.1407    3.1937   -0.5191 C   0  0  0  0  0  0  0  0  0  0  0  0
   -1.8370    0.6266    0.8986 O   0  0  0  0  0  0  0  0  0  0  0  0
   -2.3189    0.1426    2.1593 C   0  0  0  0  0  0  0  0  0  0  0  0
   -1.8053   -1.2505    2.4601 C   0  0  0  0  0  0  0  0  0  0  0  0
    5.5812    1.8145   -1.1228 H   0  0  0  0  0  0  0  0  0  0  0  0
    4.9953    0.1658   -1.4116 H   0  0  0  0  0  0  0  0  0  0  0  0
    3.8650    1.5269   -1.4369 H   0  0  0  0  0  0  0  0  0  0  0  0
    4.1677    1.9058    0.9634 H   0  0  0  0  0  0  0  0  0  0  0  0
    5.4320    0.6433    1.0431 H   0  0  0  0  0  0  0  0  0  0  0  0
    0.9166   -3.0397    1.4176 H   0  0  0  0  0  0  0  0  0  0  0  0
    2.3750   -2.6714    0.4586 H   0  0  0  0  0  0  0  0  0  0  0  0
    2.1499   -2.3846    3.4999 H   0  0  0  0  0  0  0  0  0  0  0  0
    2.9716   -3.7062    2.6551 H   0  0  0  0  0  0  0  0  0  0  0  0
    3.5948   -2.0519    2.5369 H   0  0  0  0  0  0  0  0  0  0  0  0
    0.2129   -0.3557   -3.0331 H   0  0  0  0  0  0  0  0  0  0  0  0
    0.1863    0.7464   -1.6067 H   0  0  0  0  0  0  0  0  0  0  0  0
   -2.6067    2.8174   -2.5877 H   0  0  0  0  0  0  0  0  0  0  0  0
   -3.9806    1.8415   -1.9812 H   0  0  0  0  0  0  0  0  0  0  0  0
   -2.1555    3.5134   -0.1863 H   0  0  0  0  0  0  0  0  0  0  0  0
   -3.7345    4.0632   -0.7828 H   0  0  0  0  0  0  0  0  0  0  0  0
   -3.6309    2.6641    0.2966 H   0  0  0  0  0  0  0  0  0  0  0  0
   -1.9535    0.8740    2.8817 H   0  0  0  0  0  0  0  0  0  0  0  0
   -3.4142    0.1505    2.1366 H   0  0  0  0  0  0  0  0  0  0  0  0
   -2.1613   -1.5658    3.4355 H   0  0  0  0  0  0  0  0  0  0  0  0
   -2.1715   -1.9462    1.7038 H   0  0  0  0  0  0  0  0  0  0  0  0
   -0.7189   -1.2547    2.4493 H   0  0  0  0  0  0  0  0  0  0  0  0
  1  2  1  0  0  0  0
  2  3  1  0  0  0  0
  3  4  2  0  0  0  0
  4  5  2  0  0  0  0
  4  6  2  0  0  0  0
  6  7  1  0  0  0  0
  7  8  1  0  0  0  0
  4  9  1  0  0  0  0
  9 10  1  0  0  0  0
 10 11  1  0  0  0  0
 11 12  1  0  0  0  0
 12 13  2  0  0  0  0
 12 14  2  0  0  0  0
 14 15  1  0  0  0  0
 15 16  1  0  0  0  0
 12 17  1  0  0  0  0
 17 18  1  0  0  0  0
 18 19  1  0  0  0  0
  1 20  1  0  0  0  0
  1 21  1  0  0  0  0
  1 22  1  0  0  0  0
  2 23  1  0  0  0  0
  2 24  1  0  0  0  0
  7 25  1  0  0  0  0
  7 26  1  0  0  0  0
  8 27  1  0  0  0  0
  8 28  1  0  0  0  0
  8 29  1  0  0  0  0
 10 30  1  0  0  0  0
 10 31  1  0  0  0  0
 15 32  1  0  0  0  0
 15 33  1  0  0  0  0
 16 34  1  0  0  0  0
 16 35  1  0  0  0  0
 16 36  1  0  0  0  0
 18 37  1  0  0  0  0
 18 38  1  0  0  0  0
 19 39  1  0  0  0  0
 19 40  1  0  0  0  0
 19 41  1  0  0  0  0
M  END
