 xtb: 6.7.1 (edcfbbe)
          04092505213D

 41 40  0     0  0            999 V2000
    4.6574   -2.9903   -1.4752 C   0  0  0  0  0  0  0  0  0  0  0  0
    3.8529   -1.7133   -1.6087 C   0  0  0  0  0  0  0  0  0  0  0  0
    2.9403   -1.6476   -0.4931 O   0  0  0  0  0  0  0  0  0  0  0  0
    2.1934   -0.3013   -0.1133 P   0  0  0  0  0  0  0  0  0  0  0  0
    3.3376    1.2882    0.0376 S   0  0  0  0  0  0  0  0  0  0  0  0
    1.4021   -0.7351    1.1845 O   0  0  0  0  0  0  0  0  0  0  0  0
    1.8795   -0.4278    2.5099 C   0  0  0  0  0  0  0  0  0  0  0  0
    3.0956   -1.2583    2.8604 C   0  0  0  0  0  0  0  0  0  0  0  0
    0.6451   -0.1885   -1.5525 S   0  0  0  0  0  0  0  0  0  0  0  0
    0.2062    1.5372   -1.2255 C   0  0  0  0  0  0  0  0  0  0  0  0
   -0.5136    1.7675    0.4224 S   0  0  0  0  0  0  0  0  0  0  0  0
   -2.3542    0.7952    0.0418 P   0  0  0  0  0  0  0  0  0  0  0  0
   -2.9937    0.9152   -1.8119 S   0  0  0  0  0  0  0  0  0  0  0  0
   -3.1451    1.5534    1.1843 O   0  0  0  0  0  0  0  0  0  0  0  0
   -4.3581    1.0586    1.7922 C   0  0  0  0  0  0  0  0  0  0  0  0
   -5.4971    0.9501    0.7988 C   0  0  0  0  0  0  0  0  0  0  0  0
   -2.2846   -0.6901    0.6141 O   0  0  0  0  0  0  0  0  0  0  0  0
   -2.2346   -1.8866   -0.1908 C   0  0  0  0  0  0  0  0  0  0  0  0
   -1.1866   -2.8277    0.3665 C   0  0  0  0  0  0  0  0  0  0  0  0
    5.2330   -2.9767   -0.5542 H   0  0  0  0  0  0  0  0  0  0  0  0
    3.9905   -3.8472   -1.4618 H   0  0  0  0  0  0  0  0  0  0  0  0
    5.3343   -3.0736   -2.3190 H   0  0  0  0  0  0  0  0  0  0  0  0
    3.2664   -1.7043   -2.5315 H   0  0  0  0  0  0  0  0  0  0  0  0
    4.4954   -0.8268   -1.5851 H   0  0  0  0  0  0  0  0  0  0  0  0
    2.1079    0.6418    2.5588 H   0  0  0  0  0  0  0  0  0  0  0  0
    1.0288   -0.6517    3.1547 H   0  0  0  0  0  0  0  0  0  0  0  0
    3.3860   -1.0599    3.8873 H   0  0  0  0  0  0  0  0  0  0  0  0
    2.8761   -2.3159    2.7412 H   0  0  0  0  0  0  0  0  0  0  0  0
    3.9212   -0.9930    2.2008 H   0  0  0  0  0  0  0  0  0  0  0  0
   -0.5180    1.8276   -1.9871 H   0  0  0  0  0  0  0  0  0  0  0  0
    1.1029    2.1551   -1.2683 H   0  0  0  0  0  0  0  0  0  0  0  0
   -4.1444    0.0906    2.2513 H   0  0  0  0  0  0  0  0  0  0  0  0
   -4.5723    1.7973    2.5664 H   0  0  0  0  0  0  0  0  0  0  0  0
   -6.4013    0.6468    1.3173 H   0  0  0  0  0  0  0  0  0  0  0  0
   -5.6653    1.9077    0.3116 H   0  0  0  0  0  0  0  0  0  0  0  0
   -5.2607    0.2132    0.0321 H   0  0  0  0  0  0  0  0  0  0  0  0
   -3.2293   -2.3361   -0.1373 H   0  0  0  0  0  0  0  0  0  0  0  0
   -2.0231   -1.6154   -1.2298 H   0  0  0  0  0  0  0  0  0  0  0  0
   -0.1965   -2.3848    0.2963 H   0  0  0  0  0  0  0  0  0  0  0  0
   -1.3999   -3.0460    1.4091 H   0  0  0  0  0  0  0  0  0  0  0  0
   -1.2030   -3.7493   -0.2059 H   0  0  0  0  0  0  0  0  0  0  0  0
  1  2  1  0  0  0  0
  2  3  1  0  0  0  0
  3  4  2  0  0  0  0
  4  5  2  0  0  0  0
  4  6  2  0  0  0  0
  6  7  1  0  0  0  0
  7  8  1  0  0  0  0
  4  9  1  0  0  0  0
  9 10  1  0  0  0  0
 10 11  1  0  0  0  0
 11 12  1  0  0  0  0
 12 13  2  0  0  0  0
 12 14  2  0  0  0  0
 14 15  1  0  0  0  0
 15 16  1  0  0  0  0
 12 17  2  0  0  0  0
 17 18  1  0  0  0  0
 18 19  1  0  0  0  0
  1 20  1  0  0  0  0
  1 21  1  0  0  0  0
  1 22  1  0  0  0  0
  2 23  1  0  0  0  0
  2 24  1  0  0  0  0
  7 25  1  0  0  0  0
  7 26  1  0  0  0  0
  8 27  1  0  0  0  0
  8 28  1  0  0  0  0
  8 29  1  0  0  0  0
 10 30  1  0  0  0  0
 10 31  1  0  0  0  0
 15 32  1  0  0  0  0
 15 33  1  0  0  0  0
 16 34  1  0  0  0  0
 16 35  1  0  0  0  0
 16 36  1  0  0  0  0
 18 37  1  0  0  0  0
 18 38  1  0  0  0  0
 19 39  1  0  0  0  0
 19 40  1  0  0  0  0
 19 41  1  0  0  0  0
M  END
