 xtb: 6.7.1 (edcfbbe)
          04092505213D

 41 40  0     0  0            999 V2000
    1.6209   -1.2659   -2.5625 C   0  0  0  0  0  0  0  0  0  0  0  0
    2.8835   -0.4509   -2.3826 C   0  0  0  0  0  0  0  0  0  0  0  0
    2.8676    0.3484   -1.1736 O   0  0  0  0  0  0  0  0  0  0  0  0
    2.8107   -0.2017    0.3049 P   0  0  0  0  0  0  0  0  0  0  0  0
    3.6287    1.0618    1.5566 S   0  0  0  0  0  0  0  0  0  0  0  0
    3.4962   -1.6269    0.1857 O   0  0  0  0  0  0  0  0  0  0  0  0
    4.0335   -2.3188    1.3299 C   0  0  0  0  0  0  0  0  0  0  0  0
    2.9541   -2.7306    2.3090 C   0  0  0  0  0  0  0  0  0  0  0  0
    0.7548   -0.6031    0.7098 S   0  0  0  0  0  0  0  0  0  0  0  0
    0.3094    1.1493    0.9256 C   0  0  0  0  0  0  0  0  0  0  0  0
   -1.3789    1.3200    1.5318 S   0  0  0  0  0  0  0  0  0  0  0  0
   -2.3132    0.5099   -0.1852 P   0  0  0  0  0  0  0  0  0  0  0  0
   -1.4922    0.9718   -1.9091 S   0  0  0  0  0  0  0  0  0  0  0  0
   -3.8282    0.9524   -0.0254 O   0  0  0  0  0  0  0  0  0  0  0  0
   -4.2594    2.2993   -0.3076 C   0  0  0  0  0  0  0  0  0  0  0  0
   -5.7724    2.2937   -0.3883 C   0  0  0  0  0  0  0  0  0  0  0  0
   -2.3822   -1.0207    0.1873 O   0  0  0  0  0  0  0  0  0  0  0  0
   -2.4365   -2.0636   -0.8097 C   0  0  0  0  0  0  0  0  0  0  0  0
   -3.7773   -2.0833   -1.5121 C   0  0  0  0  0  0  0  0  0  0  0  0
    0.7464   -0.6182   -2.5493 H   0  0  0  0  0  0  0  0  0  0  0  0
    1.6644   -1.7763   -3.5195 H   0  0  0  0  0  0  0  0  0  0  0  0
    1.5308   -2.0042   -1.7680 H   0  0  0  0  0  0  0  0  0  0  0  0
    2.9932    0.2956   -3.1706 H   0  0  0  0  0  0  0  0  0  0  0  0
    3.7638   -1.0954   -2.3506 H   0  0  0  0  0  0  0  0  0  0  0  0
    4.5362   -3.1837    0.8947 H   0  0  0  0  0  0  0  0  0  0  0  0
    4.7644   -1.6655    1.8157 H   0  0  0  0  0  0  0  0  0  0  0  0
    3.3917   -3.3519    3.0839 H   0  0  0  0  0  0  0  0  0  0  0  0
    2.5151   -1.8480    2.7720 H   0  0  0  0  0  0  0  0  0  0  0  0
    2.1700   -3.2856    1.8002 H   0  0  0  0  0  0  0  0  0  0  0  0
    0.3979    1.6571   -0.0372 H   0  0  0  0  0  0  0  0  0  0  0  0
    0.9709    1.5973    1.6673 H   0  0  0  0  0  0  0  0  0  0  0  0
   -3.9040    2.9493    0.4969 H   0  0  0  0  0  0  0  0  0  0  0  0
   -3.8070    2.6202   -1.2523 H   0  0  0  0  0  0  0  0  0  0  0  0
   -6.1228    3.3038   -0.5733 H   0  0  0  0  0  0  0  0  0  0  0  0
   -6.1029    1.6457   -1.1949 H   0  0  0  0  0  0  0  0  0  0  0  0
   -6.1897    1.9327    0.5471 H   0  0  0  0  0  0  0  0  0  0  0  0
   -1.6236   -1.9044   -1.5250 H   0  0  0  0  0  0  0  0  0  0  0  0
   -2.2566   -2.9759   -0.2405 H   0  0  0  0  0  0  0  0  0  0  0  0
   -3.9103   -1.1596   -2.0745 H   0  0  0  0  0  0  0  0  0  0  0  0
   -3.8151   -2.9238   -2.1978 H   0  0  0  0  0  0  0  0  0  0  0  0
   -4.5804   -2.1695   -0.7852 H   0  0  0  0  0  0  0  0  0  0  0  0
  1  2  1  0  0  0  0
  2  3  1  0  0  0  0
  3  4  2  0  0  0  0
  4  5  2  0  0  0  0
  4  6  2  0  0  0  0
  6  7  1  0  0  0  0
  7  8  1  0  0  0  0
  4  9  1  0  0  0  0
  9 10  1  0  0  0  0
 10 11  1  0  0  0  0
 11 12  1  0  0  0  0
 12 13  2  0  0  0  0
 12 14  2  0  0  0  0
 14 15  1  0  0  0  0
 15 16  1  0  0  0  0
 12 17  2  0  0  0  0
 17 18  1  0  0  0  0
 18 19  1  0  0  0  0
  1 20  1  0  0  0  0
  1 21  1  0  0  0  0
  1 22  1  0  0  0  0
  2 23  1  0  0  0  0
  2 24  1  0  0  0  0
  7 25  1  0  0  0  0
  7 26  1  0  0  0  0
  8 27  1  0  0  0  0
  8 28  1  0  0  0  0
  8 29  1  0  0  0  0
 10 30  1  0  0  0  0
 10 31  1  0  0  0  0
 15 32  1  0  0  0  0
 15 33  1  0  0  0  0
 16 34  1  0  0  0  0
 16 35  1  0  0  0  0
 16 36  1  0  0  0  0
 18 37  1  0  0  0  0
 18 38  1  0  0  0  0
 19 39  1  0  0  0  0
 19 40  1  0  0  0  0
 19 41  1  0  0  0  0
M  END
