 xtb: 6.7.1 (edcfbbe)
          04092505203D

 41 40  0     0  0            999 V2000
    5.5897   -0.1349   -1.3777 C   0  0  0  0  0  0  0  0  0  0  0  0
    4.1256   -0.4935   -1.5305 C   0  0  0  0  0  0  0  0  0  0  0  0
    3.3839    0.2428   -0.5377 O   0  0  0  0  0  0  0  0  0  0  0  0
    1.8003    0.3640   -0.6280 P   0  0  0  0  0  0  0  0  0  0  0  0
    1.1717    0.9934   -2.3741 S   0  0  0  0  0  0  0  0  0  0  0  0
    1.4952    1.3551    0.5608 O   0  0  0  0  0  0  0  0  0  0  0  0
    2.3171    1.5061    1.7477 C   0  0  0  0  0  0  0  0  0  0  0  0
    2.4646    0.2227    2.5354 C   0  0  0  0  0  0  0  0  0  0  0  0
    1.1567   -1.5981   -0.0840 S   0  0  0  0  0  0  0  0  0  0  0  0
   -0.1697   -1.8527   -1.2871 C   0  0  0  0  0  0  0  0  0  0  0  0
   -1.8247   -1.9435   -0.5463 S   0  0  0  0  0  0  0  0  0  0  0  0
   -1.8998   -0.1572    0.5791 P   0  0  0  0  0  0  0  0  0  0  0  0
   -1.2023   -0.1202    2.4142 S   0  0  0  0  0  0  0  0  0  0  0  0
   -3.4295    0.2722    0.5128 O   0  0  0  0  0  0  0  0  0  0  0  0
   -4.3802   -0.1789    1.4927 C   0  0  0  0  0  0  0  0  0  0  0  0
   -4.6705   -1.6579    1.3460 C   0  0  0  0  0  0  0  0  0  0  0  0
   -1.2140    0.8475   -0.4419 O   0  0  0  0  0  0  0  0  0  0  0  0
   -1.4105    2.2743   -0.3133 C   0  0  0  0  0  0  0  0  0  0  0  0
   -2.4249    2.7534   -1.3292 C   0  0  0  0  0  0  0  0  0  0  0  0
    5.9345   -0.3913   -0.3802 H   0  0  0  0  0  0  0  0  0  0  0  0
    6.1679   -0.6873   -2.1109 H   0  0  0  0  0  0  0  0  0  0  0  0
    5.7321    0.9301   -1.5380 H   0  0  0  0  0  0  0  0  0  0  0  0
    3.9547   -1.5604   -1.3626 H   0  0  0  0  0  0  0  0  0  0  0  0
    3.7464   -0.2209   -2.5210 H   0  0  0  0  0  0  0  0  0  0  0  0
    3.2899    1.8885    1.4335 H   0  0  0  0  0  0  0  0  0  0  0  0
    1.7817    2.2634    2.3224 H   0  0  0  0  0  0  0  0  0  0  0  0
    3.0520    0.4227    3.4259 H   0  0  0  0  0  0  0  0  0  0  0  0
    1.4893   -0.1555    2.8336 H   0  0  0  0  0  0  0  0  0  0  0  0
    2.9687   -0.5361    1.9397 H   0  0  0  0  0  0  0  0  0  0  0  0
   -0.0174   -2.8216   -1.7569 H   0  0  0  0  0  0  0  0  0  0  0  0
   -0.1339   -1.0437   -2.0225 H   0  0  0  0  0  0  0  0  0  0  0  0
   -3.9822    0.0405    2.4892 H   0  0  0  0  0  0  0  0  0  0  0  0
   -5.2652    0.4297    1.3034 H   0  0  0  0  0  0  0  0  0  0  0  0
   -5.4471   -1.9458    2.0472 H   0  0  0  0  0  0  0  0  0  0  0  0
   -4.9937   -1.8820    0.3329 H   0  0  0  0  0  0  0  0  0  0  0  0
   -3.7692   -2.2334    1.5587 H   0  0  0  0  0  0  0  0  0  0  0  0
   -1.7194    2.4986    0.7121 H   0  0  0  0  0  0  0  0  0  0  0  0
   -0.4274    2.7135   -0.4970 H   0  0  0  0  0  0  0  0  0  0  0  0
   -2.5252    3.8312   -1.2483 H   0  0  0  0  0  0  0  0  0  0  0  0
   -2.0850    2.4981   -2.3298 H   0  0  0  0  0  0  0  0  0  0  0  0
   -3.3884    2.2836   -1.1503 H   0  0  0  0  0  0  0  0  0  0  0  0
  1  2  1  0  0  0  0
  2  3  1  0  0  0  0
  3  4  2  0  0  0  0
  4  5  2  0  0  0  0
  4  6  2  0  0  0  0
  6  7  1  0  0  0  0
  7  8  1  0  0  0  0
  4  9  1  0  0  0  0
  9 10  1  0  0  0  0
 10 11  1  0  0  0  0
 11 12  1  0  0  0  0
 12 13  2  0  0  0  0
 12 14  2  0  0  0  0
 14 15  1  0  0  0  0
 15 16  1  0  0  0  0
 12 17  1  0  0  0  0
 17 18  1  0  0  0  0
 18 19  1  0  0  0  0
  1 20  1  0  0  0  0
  1 21  1  0  0  0  0
  1 22  1  0  0  0  0
  2 23  1  0  0  0  0
  2 24  1  0  0  0  0
  7 25  1  0  0  0  0
  7 26  1  0  0  0  0
  8 27  1  0  0  0  0
  8 28  1  0  0  0  0
  8 29  1  0  0  0  0
 10 30  1  0  0  0  0
 10 31  1  0  0  0  0
 15 32  1  0  0  0  0
 15 33  1  0  0  0  0
 16 34  1  0  0  0  0
 16 35  1  0  0  0  0
 16 36  1  0  0  0  0
 18 37  1  0  0  0  0
 18 38  1  0  0  0  0
 19 39  1  0  0  0  0
 19 40  1  0  0  0  0
 19 41  1  0  0  0  0
M  END
