 xtb: 6.7.1 (edcfbbe)
          04092505213D

 41 40  0     0  0            999 V2000
    2.2238    2.7297   -0.0930 C   0  0  0  0  0  0  0  0  0  0  0  0
    3.0823    2.0795    0.9712 C   0  0  0  0  0  0  0  0  0  0  0  0
    3.3027    0.6844    0.6974 O   0  0  0  0  0  0  0  0  0  0  0  0
    2.1182   -0.3722    0.7159 P   0  0  0  0  0  0  0  0  0  0  0  0
    0.7749   -0.1038    2.1254 S   0  0  0  0  0  0  0  0  0  0  0  0
    2.8955   -1.7558    0.7294 O   0  0  0  0  0  0  0  0  0  0  0  0
    4.0237   -2.0618    1.5788 C   0  0  0  0  0  0  0  0  0  0  0  0
    3.6949   -1.9327    3.0513 C   0  0  0  0  0  0  0  0  0  0  0  0
    1.3906   -0.4536   -1.2673 S   0  0  0  0  0  0  0  0  0  0  0  0
    0.1166   -1.7217   -0.9654 C   0  0  0  0  0  0  0  0  0  0  0  0
   -1.3922   -1.4607   -1.9379 S   0  0  0  0  0  0  0  0  0  0  0  0
   -2.3407    0.0378   -0.7892 P   0  0  0  0  0  0  0  0  0  0  0  0
   -4.1474    0.5402   -1.3481 S   0  0  0  0  0  0  0  0  0  0  0  0
   -1.3114    1.2556   -0.6947 O   0  0  0  0  0  0  0  0  0  0  0  0
   -1.3832    2.3536   -1.6210 C   0  0  0  0  0  0  0  0  0  0  0  0
   -0.8942    1.9615   -3.0007 C   0  0  0  0  0  0  0  0  0  0  0  0
   -2.2087   -0.6339    0.6412 O   0  0  0  0  0  0  0  0  0  0  0  0
   -3.0722   -0.2639    1.7355 C   0  0  0  0  0  0  0  0  0  0  0  0
   -2.8133    1.1498    2.2094 C   0  0  0  0  0  0  0  0  0  0  0  0
    2.6524    2.5652   -1.0784 H   0  0  0  0  0  0  0  0  0  0  0  0
    1.2250    2.2948   -0.0672 H   0  0  0  0  0  0  0  0  0  0  0  0
    2.1529    3.7955    0.0993 H   0  0  0  0  0  0  0  0  0  0  0  0
    2.6084    2.1690    1.9542 H   0  0  0  0  0  0  0  0  0  0  0  0
    4.0868    2.5036    1.0008 H   0  0  0  0  0  0  0  0  0  0  0  0
    4.2683   -3.0913    1.3120 H   0  0  0  0  0  0  0  0  0  0  0  0
    4.8466   -1.3995    1.3022 H   0  0  0  0  0  0  0  0  0  0  0  0
    4.5505   -2.2474    3.6406 H   0  0  0  0  0  0  0  0  0  0  0  0
    3.4569   -0.8980    3.2951 H   0  0  0  0  0  0  0  0  0  0  0  0
    2.8368   -2.5510    3.3050 H   0  0  0  0  0  0  0  0  0  0  0  0
   -0.1356   -1.7195    0.0951 H   0  0  0  0  0  0  0  0  0  0  0  0
    0.5022   -2.6871   -1.2827 H   0  0  0  0  0  0  0  0  0  0  0  0
   -2.4222    2.6968   -1.6663 H   0  0  0  0  0  0  0  0  0  0  0  0
   -0.7572    3.1265   -1.1734 H   0  0  0  0  0  0  0  0  0  0  0  0
   -1.5637    1.2175   -3.4322 H   0  0  0  0  0  0  0  0  0  0  0  0
   -0.8834    2.8385   -3.6394 H   0  0  0  0  0  0  0  0  0  0  0  0
    0.1068    1.5401   -2.9448 H   0  0  0  0  0  0  0  0  0  0  0  0
   -4.1098   -0.3811    1.4071 H   0  0  0  0  0  0  0  0  0  0  0  0
   -2.8370   -0.9962    2.5091 H   0  0  0  0  0  0  0  0  0  0  0  0
   -3.0819    1.8579    1.4266 H   0  0  0  0  0  0  0  0  0  0  0  0
   -3.4148    1.3487    3.0905 H   0  0  0  0  0  0  0  0  0  0  0  0
   -1.7606    1.2703    2.4549 H   0  0  0  0  0  0  0  0  0  0  0  0
  1  2  1  0  0  0  0
  2  3  1  0  0  0  0
  3  4  2  0  0  0  0
  4  5  2  0  0  0  0
  4  6  2  0  0  0  0
  6  7  1  0  0  0  0
  7  8  1  0  0  0  0
  4  9  1  0  0  0  0
  9 10  1  0  0  0  0
 10 11  1  0  0  0  0
 11 12  1  0  0  0  0
 12 13  2  0  0  0  0
 12 14  2  0  0  0  0
 14 15  1  0  0  0  0
 15 16  1  0  0  0  0
 12 17  2  0  0  0  0
 17 18  1  0  0  0  0
 18 19  1  0  0  0  0
  1 20  1  0  0  0  0
  1 21  1  0  0  0  0
  1 22  1  0  0  0  0
  2 23  1  0  0  0  0
  2 24  1  0  0  0  0
  7 25  1  0  0  0  0
  7 26  1  0  0  0  0
  8 27  1  0  0  0  0
  8 28  1  0  0  0  0
  8 29  1  0  0  0  0
 10 30  1  0  0  0  0
 10 31  1  0  0  0  0
 15 32  1  0  0  0  0
 15 33  1  0  0  0  0
 16 34  1  0  0  0  0
 16 35  1  0  0  0  0
 16 36  1  0  0  0  0
 18 37  1  0  0  0  0
 18 38  1  0  0  0  0
 19 39  1  0  0  0  0
 19 40  1  0  0  0  0
 19 41  1  0  0  0  0
M  END
