 xtb: 6.7.1 (edcfbbe)
          04092514003D

 41 40  0     0  0            999 V2000
    4.4154   -0.2889   -2.1880 C   0  0  0  0  0  0  0  0  0  0  0  0
    4.5350   -0.5281   -0.6968 C   0  0  0  0  0  0  0  0  0  0  0  0
    3.2498   -0.7153   -0.0807 O   0  0  0  0  0  0  0  0  0  0  0  0
    2.2791    0.5070    0.2530 P   0  0  0  0  0  0  0  0  0  0  0  0
    3.1740    2.2061    0.6381 S   0  0  0  0  0  0  0  0  0  0  0  0
    1.3467   -0.1154    1.3730 O   0  0  0  0  0  0  0  0  0  0  0  0
    1.8120   -0.9680    2.4423 C   0  0  0  0  0  0  0  0  0  0  0  0
    2.7665   -0.2539    3.3764 C   0  0  0  0  0  0  0  0  0  0  0  0
    0.8777    0.6539   -1.3235 S   0  0  0  0  0  0  0  0  0  0  0  0
    0.3858   -1.0851   -1.5367 C   0  0  0  0  0  0  0  0  0  0  0  0
   -0.7055   -1.7471   -0.2401 S   0  0  0  0  0  0  0  0  0  0  0  0
   -2.1987   -0.2638   -0.3045 P   0  0  0  0  0  0  0  0  0  0  0  0
   -2.6943    0.4281   -2.0743 S   0  0  0  0  0  0  0  0  0  0  0  0
   -1.6433    0.7814    0.7478 O   0  0  0  0  0  0  0  0  0  0  0  0
   -1.9011    2.1945    0.6598 C   0  0  0  0  0  0  0  0  0  0  0  0
   -3.2946    2.5362    1.1435 C   0  0  0  0  0  0  0  0  0  0  0  0
   -3.3885   -0.9204    0.5186 O   0  0  0  0  0  0  0  0  0  0  0  0
   -4.2906   -1.8853   -0.0652 C   0  0  0  0  0  0  0  0  0  0  0  0
   -5.5323   -1.9528    0.8020 C   0  0  0  0  0  0  0  0  0  0  0  0
    5.4092   -0.2375   -2.6216 H   0  0  0  0  0  0  0  0  0  0  0  0
    3.8611   -1.0944   -2.6622 H   0  0  0  0  0  0  0  0  0  0  0  0
    3.9004    0.6529   -2.3740 H   0  0  0  0  0  0  0  0  0  0  0  0
    5.0347    0.3170   -0.2121 H   0  0  0  0  0  0  0  0  0  0  0  0
    5.0717   -1.4528   -0.4786 H   0  0  0  0  0  0  0  0  0  0  0  0
    0.8912   -1.2582    2.9508 H   0  0  0  0  0  0  0  0  0  0  0  0
    2.2819   -1.8484    1.9991 H   0  0  0  0  0  0  0  0  0  0  0  0
    3.0296   -0.9175    4.1946 H   0  0  0  0  0  0  0  0  0  0  0  0
    3.6728    0.0332    2.8444 H   0  0  0  0  0  0  0  0  0  0  0  0
    2.3056    0.6457    3.7772 H   0  0  0  0  0  0  0  0  0  0  0  0
    1.2659   -1.7228   -1.5476 H   0  0  0  0  0  0  0  0  0  0  0  0
   -0.1360   -1.1110   -2.4923 H   0  0  0  0  0  0  0  0  0  0  0  0
   -1.1287    2.6453    1.2860 H   0  0  0  0  0  0  0  0  0  0  0  0
   -1.7591    2.5129   -0.3790 H   0  0  0  0  0  0  0  0  0  0  0  0
   -3.4187    3.6148    1.1412 H   0  0  0  0  0  0  0  0  0  0  0  0
   -4.0349    2.0913    0.4800 H   0  0  0  0  0  0  0  0  0  0  0  0
   -3.4472    2.1556    2.1498 H   0  0  0  0  0  0  0  0  0  0  0  0
   -4.5303   -1.5660   -1.0849 H   0  0  0  0  0  0  0  0  0  0  0  0
   -3.7801   -2.8513   -0.1028 H   0  0  0  0  0  0  0  0  0  0  0  0
   -6.0293   -0.9871    0.8251 H   0  0  0  0  0  0  0  0  0  0  0  0
   -6.2116   -2.6936    0.3925 H   0  0  0  0  0  0  0  0  0  0  0  0
   -5.2628   -2.2339    1.8159 H   0  0  0  0  0  0  0  0  0  0  0  0
  1  2  1  0  0  0  0
  2  3  1  0  0  0  0
  3  4  2  0  0  0  0
  4  5  2  0  0  0  0
  4  6  2  0  0  0  0
  6  7  1  0  0  0  0
  7  8  1  0  0  0  0
  4  9  1  0  0  0  0
  9 10  1  0  0  0  0
 10 11  1  0  0  0  0
 11 12  1  0  0  0  0
 12 13  2  0  0  0  0
 12 14  2  0  0  0  0
 14 15  1  0  0  0  0
 15 16  1  0  0  0  0
 12 17  2  0  0  0  0
 17 18  1  0  0  0  0
 18 19  1  0  0  0  0
  1 20  1  0  0  0  0
  1 21  1  0  0  0  0
  1 22  1  0  0  0  0
  2 23  1  0  0  0  0
  2 24  1  0  0  0  0
  7 25  1  0  0  0  0
  7 26  1  0  0  0  0
  8 27  1  0  0  0  0
  8 28  1  0  0  0  0
  8 29  1  0  0  0  0
 10 30  1  0  0  0  0
 10 31  1  0  0  0  0
 15 32  1  0  0  0  0
 15 33  1  0  0  0  0
 16 34  1  0  0  0  0
 16 35  1  0  0  0  0
 16 36  1  0  0  0  0
 18 37  1  0  0  0  0
 18 38  1  0  0  0  0
 19 39  1  0  0  0  0
 19 40  1  0  0  0  0
 19 41  1  0  0  0  0
M  END
