 xtb: 6.7.1 (edcfbbe)
          04092505213D

 41 40  0     0  0            999 V2000
    3.0283   -2.4077    2.1036 C   0  0  0  0  0  0  0  0  0  0  0  0
    1.6693   -2.2286    1.4620 C   0  0  0  0  0  0  0  0  0  0  0  0
    1.4155   -0.8438    1.1400 O   0  0  0  0  0  0  0  0  0  0  0  0
    2.2121   -0.0926   -0.0019 P   0  0  0  0  0  0  0  0  0  0  0  0
    2.8382   -1.1915   -1.5057 S   0  0  0  0  0  0  0  0  0  0  0  0
    3.3503    0.6385    0.8267 O   0  0  0  0  0  0  0  0  0  0  0  0
    4.3882    1.4000    0.1776 C   0  0  0  0  0  0  0  0  0  0  0  0
    5.5180    1.5865    1.1702 C   0  0  0  0  0  0  0  0  0  0  0  0
    0.8780    1.4741   -0.4851 S   0  0  0  0  0  0  0  0  0  0  0  0
   -0.0583    0.5525   -1.7373 C   0  0  0  0  0  0  0  0  0  0  0  0
   -1.0116   -0.8137   -1.0444 S   0  0  0  0  0  0  0  0  0  0  0  0
   -2.7270    0.2820   -0.3685 P   0  0  0  0  0  0  0  0  0  0  0  0
   -2.9286    2.0494   -1.1868 S   0  0  0  0  0  0  0  0  0  0  0  0
   -2.7004    0.1754    1.2213 O   0  0  0  0  0  0  0  0  0  0  0  0
   -1.6605    0.6550    2.0887 C   0  0  0  0  0  0  0  0  0  0  0  0
   -1.6248    2.1676    2.1715 C   0  0  0  0  0  0  0  0  0  0  0  0
   -3.9843   -0.6008   -0.7047 O   0  0  0  0  0  0  0  0  0  0  0  0
   -4.3922   -1.8092   -0.0171 C   0  0  0  0  0  0  0  0  0  0  0  0
   -3.3733   -2.9215   -0.1437 C   0  0  0  0  0  0  0  0  0  0  0  0
    3.8086   -2.1586    1.3854 H   0  0  0  0  0  0  0  0  0  0  0  0
    3.1248   -1.7555    2.9675 H   0  0  0  0  0  0  0  0  0  0  0  0
    3.1494   -3.4413    2.4120 H   0  0  0  0  0  0  0  0  0  0  0  0
    0.8595   -2.4925    2.1431 H   0  0  0  0  0  0  0  0  0  0  0  0
    1.5897   -2.8175    0.5428 H   0  0  0  0  0  0  0  0  0  0  0  0
    4.7195    0.8525   -0.7114 H   0  0  0  0  0  0  0  0  0  0  0  0
    3.9656    2.3599   -0.1315 H   0  0  0  0  0  0  0  0  0  0  0  0
    6.2978    2.1866    0.7129 H   0  0  0  0  0  0  0  0  0  0  0  0
    5.1492    2.0909    2.0584 H   0  0  0  0  0  0  0  0  0  0  0  0
    5.9292    0.6229    1.4568 H   0  0  0  0  0  0  0  0  0  0  0  0
    0.6362    0.1191   -2.4564 H   0  0  0  0  0  0  0  0  0  0  0  0
   -0.7359    1.2663   -2.2080 H   0  0  0  0  0  0  0  0  0  0  0  0
   -1.9109    0.2139    3.0557 H   0  0  0  0  0  0  0  0  0  0  0  0
   -0.6984    0.2612    1.7471 H   0  0  0  0  0  0  0  0  0  0  0  0
   -1.3443    2.5975    1.2118 H   0  0  0  0  0  0  0  0  0  0  0  0
   -2.6023    2.5521    2.4509 H   0  0  0  0  0  0  0  0  0  0  0  0
   -0.8928    2.4663    2.9150 H   0  0  0  0  0  0  0  0  0  0  0  0
   -4.5759   -1.5605    1.0295 H   0  0  0  0  0  0  0  0  0  0  0  0
   -5.3312   -2.0674   -0.5090 H   0  0  0  0  0  0  0  0  0  0  0  0
   -2.4488   -2.6496    0.3631 H   0  0  0  0  0  0  0  0  0  0  0  0
   -3.7729   -3.8229    0.3103 H   0  0  0  0  0  0  0  0  0  0  0  0
   -3.1502   -3.1156   -1.1898 H   0  0  0  0  0  0  0  0  0  0  0  0
  1  2  1  0  0  0  0
  2  3  1  0  0  0  0
  3  4  2  0  0  0  0
  4  5  2  0  0  0  0
  4  6  2  0  0  0  0
  6  7  1  0  0  0  0
  7  8  1  0  0  0  0
  4  9  1  0  0  0  0
  9 10  1  0  0  0  0
 10 11  1  0  0  0  0
 11 12  1  0  0  0  0
 12 13  2  0  0  0  0
 12 14  2  0  0  0  0
 14 15  1  0  0  0  0
 15 16  1  0  0  0  0
 12 17  2  0  0  0  0
 17 18  1  0  0  0  0
 18 19  1  0  0  0  0
  1 20  1  0  0  0  0
  1 21  1  0  0  0  0
  1 22  1  0  0  0  0
  2 23  1  0  0  0  0
  2 24  1  0  0  0  0
  7 25  1  0  0  0  0
  7 26  1  0  0  0  0
  8 27  1  0  0  0  0
  8 28  1  0  0  0  0
  8 29  1  0  0  0  0
 10 30  1  0  0  0  0
 10 31  1  0  0  0  0
 15 32  1  0  0  0  0
 15 33  1  0  0  0  0
 16 34  1  0  0  0  0
 16 35  1  0  0  0  0
 16 36  1  0  0  0  0
 18 37  1  0  0  0  0
 18 38  1  0  0  0  0
 19 39  1  0  0  0  0
 19 40  1  0  0  0  0
 19 41  1  0  0  0  0
M  END
