  19
 
 C         -2.4796279976        0.8225449108       -0.0482974597
 C         -1.2233050089        0.0079124608        0.0006375695
 C         -1.2500506878       -1.3753719063        0.0665498108
 C         -0.0761029378       -2.1069057468        0.1014464807
 C          1.1406089975       -1.4516141113        0.0714473056
 C          1.2084657574       -0.0670105100        0.0066602604
 C          0.0148967388        0.6576929030       -0.0296137443
 O         -0.0031800972        2.0228597275       -0.0941587934
 C          2.5365335218        0.6376898415       -0.0246243871
 H         -2.6094917554        1.2467700838       -1.0436203065
 H         -3.3452156300        0.2110426187        0.1900467473
 H         -2.4150131698        1.6519459374        0.6536489448
 H         -2.2037678315       -1.8817826221        0.0912723999
 H         -0.1100192086       -3.1845139636        0.1528005690
 H          2.0581787280       -2.0211955569        0.0991334883
 H          0.9003513520        2.3696684602       -0.0847631002
 H          2.6394243621        1.2374102893       -0.9290128879
 H          2.6558533467        1.2857010490        0.8440639277
 H          3.3414410258       -0.0913859828       -0.0121968170
          19
        -26.29927654
 C         -2.5113928656        0.7574664801        0.0002931176
 C         -1.2152803493       -0.0047227177       -0.0002462288
 C         -1.2067017733       -1.3926443372        0.0000223206
 C         -0.0190882756       -2.0997019063        0.0000804702
 C          1.1855116072       -1.4184430381       -0.0000415857
 C          1.2174468151       -0.0340576058       -0.0000884129
 C          0.0081622325        0.6688633498       -0.0003086704
 O          0.0863218147        2.0331347927       -0.0000702692
 C          2.5047944760        0.7315577753        0.0002914472
 H         -3.3477073666        0.0642190744       -0.0046237707
 H         -2.5971436364        1.3819433491        0.8898611845
 H         -2.5936025491        1.3900755013       -0.8838903319
 H         -2.1475284520       -1.9235024344       -0.0001759379
 H         -0.0313145113       -3.1790060806       -0.0000844384
 H          2.1163648875       -1.9661454044       -0.0002557230
 H         -0.8011741768        2.4189576243       -0.0004649236
 H          2.5589323690        1.3704572918       -0.8799615107
 H          2.5525829605        1.3801742032        0.8737871310
 H          3.3558572513        0.0569291660        0.0068944836
