 xtb: 6.7.1 (edcfbbe)
          04092505203D

 41 40  0     0  0            999 V2000
    2.7522   -0.7176   -3.0700 C   0  0  0  0  0  0  0  0  0  0  0  0
    2.7512    0.5417   -2.2242 C   0  0  0  0  0  0  0  0  0  0  0  0
    3.2575    0.2776   -0.9040 O   0  0  0  0  0  0  0  0  0  0  0  0
    2.3288    0.0523    0.3619 P   0  0  0  0  0  0  0  0  0  0  0  0
    1.0193    1.4847    0.6969 S   0  0  0  0  0  0  0  0  0  0  0  0
    3.5070   -0.0466    1.4062 O   0  0  0  0  0  0  0  0  0  0  0  0
    3.2939    0.1756    2.8133 C   0  0  0  0  0  0  0  0  0  0  0  0
    2.4323   -0.9010    3.4428 C   0  0  0  0  0  0  0  0  0  0  0  0
    1.6306   -1.9506    0.2599 S   0  0  0  0  0  0  0  0  0  0  0  0
   -0.0376   -1.7867   -0.4436 C   0  0  0  0  0  0  0  0  0  0  0  0
   -1.2679   -1.0765    0.6932 S   0  0  0  0  0  0  0  0  0  0  0  0
   -2.0057    0.5343   -0.4971 P   0  0  0  0  0  0  0  0  0  0  0  0
   -1.0932    0.8168   -2.2081 S   0  0  0  0  0  0  0  0  0  0  0  0
   -2.0393    1.8289    0.3974 O   0  0  0  0  0  0  0  0  0  0  0  0
   -2.9827    2.0976    1.4620 C   0  0  0  0  0  0  0  0  0  0  0  0
   -2.8619    1.1104    2.6030 C   0  0  0  0  0  0  0  0  0  0  0  0
   -3.5682    0.2367   -0.6442 O   0  0  0  0  0  0  0  0  0  0  0  0
   -4.1272   -0.5685   -1.6946 C   0  0  0  0  0  0  0  0  0  0  0  0
   -3.6852   -2.0160   -1.6210 C   0  0  0  0  0  0  0  0  0  0  0  0
    2.4240   -0.4658   -4.0734 H   0  0  0  0  0  0  0  0  0  0  0  0
    3.7541   -1.1354   -3.1076 H   0  0  0  0  0  0  0  0  0  0  0  0
    2.0776   -1.4637   -2.6572 H   0  0  0  0  0  0  0  0  0  0  0  0
    1.7475    0.9771   -2.1564 H   0  0  0  0  0  0  0  0  0  0  0  0
    3.4300    1.2901   -2.6383 H   0  0  0  0  0  0  0  0  0  0  0  0
    4.3021    0.1803    3.2298 H   0  0  0  0  0  0  0  0  0  0  0  0
    2.8342    1.1610    2.9415 H   0  0  0  0  0  0  0  0  0  0  0  0
    2.8367   -1.8857    3.2225 H   0  0  0  0  0  0  0  0  0  0  0  0
    2.4041   -0.7535    4.5177 H   0  0  0  0  0  0  0  0  0  0  0  0
    1.4166   -0.8427    3.0525 H   0  0  0  0  0  0  0  0  0  0  0  0
   -0.3357   -2.8078   -0.6683 H   0  0  0  0  0  0  0  0  0  0  0  0
   -0.0146   -1.1672   -1.3451 H   0  0  0  0  0  0  0  0  0  0  0  0
   -2.7151    3.1080    1.7755 H   0  0  0  0  0  0  0  0  0  0  0  0
   -3.9889    2.0900    1.0376 H   0  0  0  0  0  0  0  0  0  0  0  0
   -1.8341    1.0734    2.9564 H   0  0  0  0  0  0  0  0  0  0  0  0
   -3.5096    1.4246    3.4155 H   0  0  0  0  0  0  0  0  0  0  0  0
   -3.1577    0.1146    2.2761 H   0  0  0  0  0  0  0  0  0  0  0  0
   -5.2039   -0.4690   -1.5482 H   0  0  0  0  0  0  0  0  0  0  0  0
   -3.8410   -0.1285   -2.6551 H   0  0  0  0  0  0  0  0  0  0  0  0
   -3.8502   -2.4136   -0.6230 H   0  0  0  0  0  0  0  0  0  0  0  0
   -4.2538   -2.5975   -2.3396 H   0  0  0  0  0  0  0  0  0  0  0  0
   -2.6272   -2.0927   -1.8663 H   0  0  0  0  0  0  0  0  0  0  0  0
  1  2  1  0  0  0  0
  2  3  1  0  0  0  0
  3  4  2  0  0  0  0
  4  5  2  0  0  0  0
  4  6  2  0  0  0  0
  6  7  1  0  0  0  0
  7  8  1  0  0  0  0
  4  9  1  0  0  0  0
  9 10  1  0  0  0  0
 10 11  1  0  0  0  0
 11 12  1  0  0  0  0
 12 13  2  0  0  0  0
 12 14  2  0  0  0  0
 14 15  1  0  0  0  0
 15 16  1  0  0  0  0
 12 17  2  0  0  0  0
 17 18  1  0  0  0  0
 18 19  1  0  0  0  0
  1 20  1  0  0  0  0
  1 21  1  0  0  0  0
  1 22  1  0  0  0  0
  2 23  1  0  0  0  0
  2 24  1  0  0  0  0
  7 25  1  0  0  0  0
  7 26  1  0  0  0  0
  8 27  1  0  0  0  0
  8 28  1  0  0  0  0
  8 29  1  0  0  0  0
 10 30  1  0  0  0  0
 10 31  1  0  0  0  0
 15 32  1  0  0  0  0
 15 33  1  0  0  0  0
 16 34  1  0  0  0  0
 16 35  1  0  0  0  0
 16 36  1  0  0  0  0
 18 37  1  0  0  0  0
 18 38  1  0  0  0  0
 19 39  1  0  0  0  0
 19 40  1  0  0  0  0
 19 41  1  0  0  0  0
M  END
