 xtb: 6.7.1 (edcfbbe)
          04092514023D

 41 40  0     0  0            999 V2000
    4.4973    0.2128   -2.3221 C   0  0  0  0  0  0  0  0  0  0  0  0
    4.6444   -0.1081   -0.8486 C   0  0  0  0  0  0  0  0  0  0  0  0
    3.3867   -0.4624   -0.2494 O   0  0  0  0  0  0  0  0  0  0  0  0
    2.2775    0.6243    0.1383 P   0  0  0  0  0  0  0  0  0  0  0  0
    3.0014    2.3739    0.6408 S   0  0  0  0  0  0  0  0  0  0  0  0
    1.4690   -0.1470    1.2609 O   0  0  0  0  0  0  0  0  0  0  0  0
    2.0351   -0.3276    2.5787 C   0  0  0  0  0  0  0  0  0  0  0  0
    0.9836   -0.9972    3.4379 C   0  0  0  0  0  0  0  0  0  0  0  0
    0.8273    0.6454   -1.3862 S   0  0  0  0  0  0  0  0  0  0  0  0
    0.4066   -1.1152   -1.5576 C   0  0  0  0  0  0  0  0  0  0  0  0
   -0.5971   -1.8131   -0.2095 S   0  0  0  0  0  0  0  0  0  0  0  0
   -2.1852   -0.4408   -0.2162 P   0  0  0  0  0  0  0  0  0  0  0  0
   -2.8011    0.2530   -1.9480 S   0  0  0  0  0  0  0  0  0  0  0  0
   -1.6623    0.6105    0.8486 O   0  0  0  0  0  0  0  0  0  0  0  0
   -2.3052    1.8898    1.0435 C   0  0  0  0  0  0  0  0  0  0  0  0
   -1.4888    2.9924    0.3988 C   0  0  0  0  0  0  0  0  0  0  0  0
   -3.3209   -1.1740    0.6256 O   0  0  0  0  0  0  0  0  0  0  0  0
   -4.2904   -2.0758    0.0520 C   0  0  0  0  0  0  0  0  0  0  0  0
   -5.5884   -1.9387    0.8249 C   0  0  0  0  0  0  0  0  0  0  0  0
    3.8852    1.1051   -2.4491 H   0  0  0  0  0  0  0  0  0  0  0  0
    5.4792    0.3961   -2.7472 H   0  0  0  0  0  0  0  0  0  0  0  0
    4.0291   -0.6145   -2.8485 H   0  0  0  0  0  0  0  0  0  0  0  0
    5.0586    0.7496   -0.3084 H   0  0  0  0  0  0  0  0  0  0  0  0
    5.2729   -0.9855   -0.6880 H   0  0  0  0  0  0  0  0  0  0  0  0
    2.9333   -0.9442    2.4897 H   0  0  0  0  0  0  0  0  0  0  0  0
    2.3152    0.6566    2.9692 H   0  0  0  0  0  0  0  0  0  0  0  0
    0.7349   -1.9719    3.0272 H   0  0  0  0  0  0  0  0  0  0  0  0
    1.3661   -1.1138    4.4467 H   0  0  0  0  0  0  0  0  0  0  0  0
    0.0828   -0.3899    3.4604 H   0  0  0  0  0  0  0  0  0  0  0  0
    1.3121   -1.7150   -1.5993 H   0  0  0  0  0  0  0  0  0  0  0  0
   -0.1529   -1.1720   -2.4905 H   0  0  0  0  0  0  0  0  0  0  0  0
   -3.3148    1.8567    0.6240 H   0  0  0  0  0  0  0  0  0  0  0  0
   -2.3632    2.0163    2.1260 H   0  0  0  0  0  0  0  0  0  0  0  0
   -1.9271    3.9551    0.6412 H   0  0  0  0  0  0  0  0  0  0  0  0
   -0.4639    2.9649    0.7638 H   0  0  0  0  0  0  0  0  0  0  0  0
   -1.4732    2.8686   -0.6824 H   0  0  0  0  0  0  0  0  0  0  0  0
   -4.4285   -1.8204   -1.0039 H   0  0  0  0  0  0  0  0  0  0  0  0
   -3.8878   -3.0882    0.1313 H   0  0  0  0  0  0  0  0  0  0  0  0
   -5.9870   -0.9333    0.7195 H   0  0  0  0  0  0  0  0  0  0  0  0
   -6.3103   -2.6495    0.4353 H   0  0  0  0  0  0  0  0  0  0  0  0
   -5.4179   -2.1413    1.8784 H   0  0  0  0  0  0  0  0  0  0  0  0
  1  2  1  0  0  0  0
  2  3  1  0  0  0  0
  3  4  2  0  0  0  0
  4  5  2  0  0  0  0
  4  6  2  0  0  0  0
  6  7  1  0  0  0  0
  7  8  1  0  0  0  0
  4  9  1  0  0  0  0
  9 10  1  0  0  0  0
 10 11  1  0  0  0  0
 11 12  1  0  0  0  0
 12 13  2  0  0  0  0
 12 14  2  0  0  0  0
 14 15  1  0  0  0  0
 15 16  1  0  0  0  0
 12 17  2  0  0  0  0
 17 18  1  0  0  0  0
 18 19  1  0  0  0  0
  1 20  1  0  0  0  0
  1 21  1  0  0  0  0
  1 22  1  0  0  0  0
  2 23  1  0  0  0  0
  2 24  1  0  0  0  0
  7 25  1  0  0  0  0
  7 26  1  0  0  0  0
  8 27  1  0  0  0  0
  8 28  1  0  0  0  0
  8 29  1  0  0  0  0
 10 30  1  0  0  0  0
 10 31  1  0  0  0  0
 15 32  1  0  0  0  0
 15 33  1  0  0  0  0
 16 34  1  0  0  0  0
 16 35  1  0  0  0  0
 16 36  1  0  0  0  0
 18 37  1  0  0  0  0
 18 38  1  0  0  0  0
 19 39  1  0  0  0  0
 19 40  1  0  0  0  0
 19 41  1  0  0  0  0
M  END
