 xtb: 6.7.1 (edcfbbe)
          04092505203D

 41 40  0     0  0            999 V2000
    0.7322   -1.5212    3.1985 C   0  0  0  0  0  0  0  0  0  0  0  0
    1.9953   -0.9688    2.5708 C   0  0  0  0  0  0  0  0  0  0  0  0
    1.6351   -0.0152    1.5424 O   0  0  0  0  0  0  0  0  0  0  0  0
    2.3457    0.0488    0.1343 P   0  0  0  0  0  0  0  0  0  0  0  0
    3.1291   -1.6387   -0.4981 S   0  0  0  0  0  0  0  0  0  0  0  0
    3.3448    1.2636    0.3648 O   0  0  0  0  0  0  0  0  0  0  0  0
    4.2443    1.7338   -0.6597 C   0  0  0  0  0  0  0  0  0  0  0  0
    5.6043    1.0759   -0.5275 C   0  0  0  0  0  0  0  0  0  0  0  0
    0.8616    0.8912   -1.1134 S   0  0  0  0  0  0  0  0  0  0  0  0
    0.0424   -0.6730   -1.5252 C   0  0  0  0  0  0  0  0  0  0  0  0
   -1.0254   -1.2706   -0.1978 S   0  0  0  0  0  0  0  0  0  0  0  0
   -2.5177    0.2406   -0.4295 P   0  0  0  0  0  0  0  0  0  0  0  0
   -2.8846    0.7995   -2.2657 S   0  0  0  0  0  0  0  0  0  0  0  0
   -2.0440    1.4424    0.4733 O   0  0  0  0  0  0  0  0  0  0  0  0
   -1.8485    1.3160    1.9055 C   0  0  0  0  0  0  0  0  0  0  0  0
   -0.7949    2.3191    2.3263 C   0  0  0  0  0  0  0  0  0  0  0  0
   -3.7543   -0.3188    0.3991 O   0  0  0  0  0  0  0  0  0  0  0  0
   -4.7617   -1.1704   -0.1787 C   0  0  0  0  0  0  0  0  0  0  0  0
   -4.2089   -2.5163   -0.5996 C   0  0  0  0  0  0  0  0  0  0  0  0
    0.1540   -0.7183    3.6466 H   0  0  0  0  0  0  0  0  0  0  0  0
    0.1278   -2.0218    2.4456 H   0  0  0  0  0  0  0  0  0  0  0  0
    1.0065   -2.2363    3.9673 H   0  0  0  0  0  0  0  0  0  0  0  0
    2.5921   -1.7667    2.1162 H   0  0  0  0  0  0  0  0  0  0  0  0
    2.6041   -0.4316    3.3005 H   0  0  0  0  0  0  0  0  0  0  0  0
    3.8061    1.5393   -1.6428 H   0  0  0  0  0  0  0  0  0  0  0  0
    4.3058    2.8116   -0.4975 H   0  0  0  0  0  0  0  0  0  0  0  0
    6.2765    1.4922   -1.2708 H   0  0  0  0  0  0  0  0  0  0  0  0
    6.0095    1.2535    0.4647 H   0  0  0  0  0  0  0  0  0  0  0  0
    5.5219    0.0029   -0.6859 H   0  0  0  0  0  0  0  0  0  0  0  0
    0.7968   -1.4403   -1.7047 H   0  0  0  0  0  0  0  0  0  0  0  0
   -0.5602   -0.4873   -2.4147 H   0  0  0  0  0  0  0  0  0  0  0  0
   -2.8099    1.5159    2.3823 H   0  0  0  0  0  0  0  0  0  0  0  0
   -1.5404    0.2901    2.1275 H   0  0  0  0  0  0  0  0  0  0  0  0
   -1.0838    3.3156    2.0046 H   0  0  0  0  0  0  0  0  0  0  0  0
   -0.6978    2.3034    3.4072 H   0  0  0  0  0  0  0  0  0  0  0  0
    0.1643    2.0723    1.8771 H   0  0  0  0  0  0  0  0  0  0  0  0
   -5.5016   -1.2690    0.6168 H   0  0  0  0  0  0  0  0  0  0  0  0
   -5.2009   -0.6501   -1.0351 H   0  0  0  0  0  0  0  0  0  0  0  0
   -3.6726   -2.9814    0.2237 H   0  0  0  0  0  0  0  0  0  0  0  0
   -5.0282   -3.1589   -0.9056 H   0  0  0  0  0  0  0  0  0  0  0  0
   -3.5269   -2.3933   -1.4396 H   0  0  0  0  0  0  0  0  0  0  0  0
  1  2  1  0  0  0  0
  2  3  1  0  0  0  0
  3  4  2  0  0  0  0
  4  5  2  0  0  0  0
  4  6  2  0  0  0  0
  6  7  1  0  0  0  0
  7  8  1  0  0  0  0
  4  9  1  0  0  0  0
  9 10  1  0  0  0  0
 10 11  1  0  0  0  0
 11 12  1  0  0  0  0
 12 13  2  0  0  0  0
 12 14  2  0  0  0  0
 14 15  1  0  0  0  0
 15 16  1  0  0  0  0
 12 17  2  0  0  0  0
 17 18  1  0  0  0  0
 18 19  1  0  0  0  0
  1 20  1  0  0  0  0
  1 21  1  0  0  0  0
  1 22  1  0  0  0  0
  2 23  1  0  0  0  0
  2 24  1  0  0  0  0
  7 25  1  0  0  0  0
  7 26  1  0  0  0  0
  8 27  1  0  0  0  0
  8 28  1  0  0  0  0
  8 29  1  0  0  0  0
 10 30  1  0  0  0  0
 10 31  1  0  0  0  0
 15 32  1  0  0  0  0
 15 33  1  0  0  0  0
 16 34  1  0  0  0  0
 16 35  1  0  0  0  0
 16 36  1  0  0  0  0
 18 37  1  0  0  0  0
 18 38  1  0  0  0  0
 19 39  1  0  0  0  0
 19 40  1  0  0  0  0
 19 41  1  0  0  0  0
M  END
