 xtb: 6.7.1 (edcfbbe)
          04092507313D

 38 37  0     0  0            999 V2000
    5.1925   -0.4268    0.1204 C   0  0  0  0  0  0  0  0  0  0  0  0
    4.6197   -1.6382   -0.5970 C   0  0  0  0  0  0  0  0  0  0  0  0
    3.1940   -1.7236   -0.4031 O   0  0  0  0  0  0  0  0  0  0  0  0
    2.4082   -1.0983   -1.2530 C   0  0  0  0  0  0  0  0  0  0  0  0
    2.7912   -0.4625   -2.2112 O   0  0  0  0  0  0  0  0  0  0  0  0
    0.9444   -1.3105   -0.9121 C   0  0  0  0  0  0  0  0  0  0  0  0
    0.1432   -0.0902   -1.3440 C   0  0  0  0  0  0  0  0  0  0  0  0
    0.4488    0.1885   -2.3605 H   0  0  0  0  0  0  0  0  0  0  0  0
    0.3702    1.1240   -0.4633 C   0  0  0  0  0  0  0  0  0  0  0  0
   -0.4941    1.9591   -0.2767 O   0  0  0  0  0  0  0  0  0  0  0  0
    1.5883    1.1691    0.0012 O   0  0  0  0  0  0  0  0  0  0  0  0
    1.9722    2.2469    0.8826 C   0  0  0  0  0  0  0  0  0  0  0  0
    2.3114    1.6814    2.2504 C   0  0  0  0  0  0  0  0  0  0  0  0
   -1.6452   -0.3956   -1.4592 S   0  0  0  0  0  0  0  0  0  0  0  0
   -2.2568    0.0044    0.5378 P   0  0  0  0  0  0  0  0  0  0  0  0
   -0.9587   -0.2842    1.9710 S   0  0  0  0  0  0  0  0  0  0  0  0
   -2.9904    1.3974    0.6392 O   0  0  0  0  0  0  0  0  0  0  0  0
   -3.9192    1.8682   -0.3557 C   0  0  0  0  0  0  0  0  0  0  0  0
   -3.5318   -0.9646    0.6367 O   0  0  0  0  0  0  0  0  0  0  0  0
   -3.3877   -2.3885    0.6695 C   0  0  0  0  0  0  0  0  0  0  0  0
    4.9742   -0.4839    1.1832 H   0  0  0  0  0  0  0  0  0  0  0  0
    6.2676   -0.3990   -0.0226 H   0  0  0  0  0  0  0  0  0  0  0  0
    4.7566    0.4834   -0.2848 H   0  0  0  0  0  0  0  0  0  0  0  0
    5.0093   -2.5680   -0.1823 H   0  0  0  0  0  0  0  0  0  0  0  0
    4.8216   -1.5830   -1.6705 H   0  0  0  0  0  0  0  0  0  0  0  0
    0.8450   -1.5059    0.1563 H   0  0  0  0  0  0  0  0  0  0  0  0
    0.5947   -2.1835   -1.4675 H   0  0  0  0  0  0  0  0  0  0  0  0
    2.8418    2.7135    0.4154 H   0  0  0  0  0  0  0  0  0  0  0  0
    1.1465    2.9613    0.9379 H   0  0  0  0  0  0  0  0  0  0  0  0
    2.6233    2.4894    2.9033 H   0  0  0  0  0  0  0  0  0  0  0  0
    1.4404    1.1902    2.6794 H   0  0  0  0  0  0  0  0  0  0  0  0
    3.1131    0.9543    2.1656 H   0  0  0  0  0  0  0  0  0  0  0  0
   -4.6704    1.1073   -0.5599 H   0  0  0  0  0  0  0  0  0  0  0  0
   -3.3758    2.1232   -1.2652 H   0  0  0  0  0  0  0  0  0  0  0  0
   -4.3718    2.7555    0.0791 H   0  0  0  0  0  0  0  0  0  0  0  0
   -2.6272   -2.6709    1.3991 H   0  0  0  0  0  0  0  0  0  0  0  0
   -3.1138   -2.7552   -0.3193 H   0  0  0  0  0  0  0  0  0  0  0  0
   -4.3597   -2.7735    0.9668 H   0  0  0  0  0  0  0  0  0  0  0  0
  1  2  1  0  0  0  0
  2  3  1  0  0  0  0
  3  4  1  0  0  0  0
  4  5  2  0  0  0  0
  4  6  1  0  0  0  0
  6  7  1  0  0  0  0
  7  8  1  0  0  0  0
  7  9  1  0  0  0  0
  9 10  2  0  0  0  0
  9 11  4  0  0  0  0
 11 12  1  0  0  0  0
 12 13  1  0  0  0  0
  7 14  1  0  0  0  0
 14 15  1  0  0  0  0
 15 16  2  0  0  0  0
 15 17  2  0  0  0  0
 17 18  1  0  0  0  0
 15 19  1  0  0  0  0
 19 20  1  0  0  0  0
  1 21  1  0  0  0  0
  1 22  1  0  0  0  0
  1 23  1  0  0  0  0
  2 24  1  0  0  0  0
  2 25  1  0  0  0  0
  6 26  1  0  0  0  0
  6 27  1  0  0  0  0
 12 28  1  0  0  0  0
 12 29  1  0  0  0  0
 13 30  1  0  0  0  0
 13 31  1  0  0  0  0
 13 32  1  0  0  0  0
 18 33  1  0  0  0  0
 18 34  1  0  0  0  0
 18 35  1  0  0  0  0
 20 36  1  0  0  0  0
 20 37  1  0  0  0  0
 20 38  1  0  0  0  0
M  END
