 xtb: 6.7.1 (edcfbbe)
          04092505203D

 41 40  0     0  0            999 V2000
    4.3629   -0.1683   -2.2296 C   0  0  0  0  0  0  0  0  0  0  0  0
    4.4635    0.7360   -1.0185 C   0  0  0  0  0  0  0  0  0  0  0  0
    3.6680    0.2669    0.0850 O   0  0  0  0  0  0  0  0  0  0  0  0
    2.0804    0.2145    0.0392 P   0  0  0  0  0  0  0  0  0  0  0  0
    1.1992    1.7439   -0.8026 S   0  0  0  0  0  0  0  0  0  0  0  0
    1.6935    0.0949    1.5654 O   0  0  0  0  0  0  0  0  0  0  0  0
    2.2126   -0.9277    2.4525 C   0  0  0  0  0  0  0  0  0  0  0  0
    3.3894   -0.4009    3.2470 C   0  0  0  0  0  0  0  0  0  0  0  0
    1.6726   -1.7034   -0.7952 S   0  0  0  0  0  0  0  0  0  0  0  0
   -0.0991   -1.4938   -1.0449 C   0  0  0  0  0  0  0  0  0  0  0  0
   -1.0010   -1.3529    0.5414 S   0  0  0  0  0  0  0  0  0  0  0  0
   -2.4592    0.1153    0.0494 P   0  0  0  0  0  0  0  0  0  0  0  0
   -2.3150    0.9162   -1.7393 S   0  0  0  0  0  0  0  0  0  0  0  0
   -2.5010    1.0480    1.3278 O   0  0  0  0  0  0  0  0  0  0  0  0
   -1.4448    1.9168    1.7660 C   0  0  0  0  0  0  0  0  0  0  0  0
   -1.5211    3.2672    1.0812 C   0  0  0  0  0  0  0  0  0  0  0  0
   -3.8560   -0.5639    0.3526 O   0  0  0  0  0  0  0  0  0  0  0  0
   -4.6229   -1.2223   -0.6689 C   0  0  0  0  0  0  0  0  0  0  0  0
   -3.9553   -2.4965   -1.1474 C   0  0  0  0  0  0  0  0  0  0  0  0
    4.5613   -1.2000   -1.9503 H   0  0  0  0  0  0  0  0  0  0  0  0
    3.3649   -0.1064   -2.6609 H   0  0  0  0  0  0  0  0  0  0  0  0
    5.0857    0.1501   -2.9740 H   0  0  0  0  0  0  0  0  0  0  0  0
    4.1408    1.7515   -1.2679 H   0  0  0  0  0  0  0  0  0  0  0  0
    5.4773    0.7578   -0.6161 H   0  0  0  0  0  0  0  0  0  0  0  0
    1.3696   -1.1791    3.0992 H   0  0  0  0  0  0  0  0  0  0  0  0
    2.4929   -1.8023    1.8593 H   0  0  0  0  0  0  0  0  0  0  0  0
    3.1023    0.4956    3.7896 H   0  0  0  0  0  0  0  0  0  0  0  0
    3.7070   -1.1614    3.9534 H   0  0  0  0  0  0  0  0  0  0  0  0
    4.2149   -0.1603    2.5828 H   0  0  0  0  0  0  0  0  0  0  0  0
   -0.4327   -2.3873   -1.5667 H   0  0  0  0  0  0  0  0  0  0  0  0
   -0.2942   -0.5917   -1.6333 H   0  0  0  0  0  0  0  0  0  0  0  0
   -1.6057    2.0087    2.8420 H   0  0  0  0  0  0  0  0  0  0  0  0
   -0.4738    1.4444    1.5848 H   0  0  0  0  0  0  0  0  0  0  0  0
   -2.5105    3.6970    1.2117 H   0  0  0  0  0  0  0  0  0  0  0  0
   -0.7758    3.9288    1.5108 H   0  0  0  0  0  0  0  0  0  0  0  0
   -1.3181    3.1639    0.0164 H   0  0  0  0  0  0  0  0  0  0  0  0
   -5.5801   -1.4242   -0.1866 H   0  0  0  0  0  0  0  0  0  0  0  0
   -4.7650   -0.5267   -1.5024 H   0  0  0  0  0  0  0  0  0  0  0  0
   -3.7034   -3.1310   -0.3014 H   0  0  0  0  0  0  0  0  0  0  0  0
   -4.6294   -3.0289   -1.8107 H   0  0  0  0  0  0  0  0  0  0  0  0
   -3.0455   -2.2503   -1.6940 H   0  0  0  0  0  0  0  0  0  0  0  0
  1  2  1  0  0  0  0
  2  3  1  0  0  0  0
  3  4  2  0  0  0  0
  4  5  2  0  0  0  0
  4  6  2  0  0  0  0
  6  7  1  0  0  0  0
  7  8  1  0  0  0  0
  4  9  1  0  0  0  0
  9 10  1  0  0  0  0
 10 11  1  0  0  0  0
 11 12  1  0  0  0  0
 12 13  2  0  0  0  0
 12 14  2  0  0  0  0
 14 15  1  0  0  0  0
 15 16  1  0  0  0  0
 12 17  2  0  0  0  0
 17 18  1  0  0  0  0
 18 19  1  0  0  0  0
  1 20  1  0  0  0  0
  1 21  1  0  0  0  0
  1 22  1  0  0  0  0
  2 23  1  0  0  0  0
  2 24  1  0  0  0  0
  7 25  1  0  0  0  0
  7 26  1  0  0  0  0
  8 27  1  0  0  0  0
  8 28  1  0  0  0  0
  8 29  1  0  0  0  0
 10 30  1  0  0  0  0
 10 31  1  0  0  0  0
 15 32  1  0  0  0  0
 15 33  1  0  0  0  0
 16 34  1  0  0  0  0
 16 35  1  0  0  0  0
 16 36  1  0  0  0  0
 18 37  1  0  0  0  0
 18 38  1  0  0  0  0
 19 39  1  0  0  0  0
 19 40  1  0  0  0  0
 19 41  1  0  0  0  0
M  END
