 xtb: 6.7.1 (edcfbbe)
          04092507313D

 38 37  0     0  0            999 V2000
    4.8065    0.2423   -2.0087 C   0  0  0  0  0  0  0  0  0  0  0  0
    4.5219   -1.0790   -1.3144 C   0  0  0  0  0  0  0  0  0  0  0  0
    3.0990   -1.3032   -1.2766 O   0  0  0  0  0  0  0  0  0  0  0  0
    2.4838   -1.3635   -0.1130 C   0  0  0  0  0  0  0  0  0  0  0  0
    3.0294   -1.3132    0.9654 O   0  0  0  0  0  0  0  0  0  0  0  0
    0.9844   -1.5283   -0.2997 C   0  0  0  0  0  0  0  0  0  0  0  0
    0.4131   -0.3352   -1.0717 C   0  0  0  0  0  0  0  0  0  0  0  0
    0.9082   -0.2525   -2.0426 H   0  0  0  0  0  0  0  0  0  0  0  0
    0.6004    0.9493   -0.2901 C   0  0  0  0  0  0  0  0  0  0  0  0
   -0.3335    1.6084    0.1216 O   0  0  0  0  0  0  0  0  0  0  0  0
    1.8620    1.2416   -0.1230 O   0  0  0  0  0  0  0  0  0  0  0  0
    2.1976    2.3348    0.7612 C   0  0  0  0  0  0  0  0  0  0  0  0
    2.1885    1.8621    2.2052 C   0  0  0  0  0  0  0  0  0  0  0  0
   -1.3565   -0.5369   -1.4358 S   0  0  0  0  0  0  0  0  0  0  0  0
   -2.3050    0.0476    0.3843 P   0  0  0  0  0  0  0  0  0  0  0  0
   -1.4493   -0.2871    2.1178 S   0  0  0  0  0  0  0  0  0  0  0  0
   -2.9692    1.4737    0.2312 O   0  0  0  0  0  0  0  0  0  0  0  0
   -3.8002    1.8247   -0.8917 C   0  0  0  0  0  0  0  0  0  0  0  0
   -3.6399   -0.8437    0.2235 O   0  0  0  0  0  0  0  0  0  0  0  0
   -3.6206   -2.2625    0.3884 C   0  0  0  0  0  0  0  0  0  0  0  0
    4.3243    1.0553   -1.4724 H   0  0  0  0  0  0  0  0  0  0  0  0
    5.8776    0.4133   -2.0295 H   0  0  0  0  0  0  0  0  0  0  0  0
    4.4276    0.2196   -3.0262 H   0  0  0  0  0  0  0  0  0  0  0  0
    4.9022   -1.0842   -0.2894 H   0  0  0  0  0  0  0  0  0  0  0  0
    4.9446   -1.9170   -1.8722 H   0  0  0  0  0  0  0  0  0  0  0  0
    0.5192   -1.6129    0.6849 H   0  0  0  0  0  0  0  0  0  0  0  0
    0.7982   -2.4361   -0.8746 H   0  0  0  0  0  0  0  0  0  0  0  0
    3.1955    2.6407    0.4476 H   0  0  0  0  0  0  0  0  0  0  0  0
    1.4786    3.1435    0.6062 H   0  0  0  0  0  0  0  0  0  0  0  0
    2.8302    0.9908    2.3159 H   0  0  0  0  0  0  0  0  0  0  0  0
    2.5423    2.6586    2.8507 H   0  0  0  0  0  0  0  0  0  0  0  0
    1.1797    1.5835    2.5066 H   0  0  0  0  0  0  0  0  0  0  0  0
   -3.2539    1.6743   -1.8231 H   0  0  0  0  0  0  0  0  0  0  0  0
   -4.0340    2.8766   -0.7494 H   0  0  0  0  0  0  0  0  0  0  0  0
   -4.7051    1.2197   -0.8867 H   0  0  0  0  0  0  0  0  0  0  0  0
   -4.6609   -2.5620    0.4868 H   0  0  0  0  0  0  0  0  0  0  0  0
   -3.0628   -2.5276    1.2885 H   0  0  0  0  0  0  0  0  0  0  0  0
   -3.1668   -2.7309   -0.4848 H   0  0  0  0  0  0  0  0  0  0  0  0
  1  2  1  0  0  0  0
  2  3  1  0  0  0  0
  3  4  1  0  0  0  0
  4  5  2  0  0  0  0
  4  6  1  0  0  0  0
  6  7  1  0  0  0  0
  7  8  1  0  0  0  0
  7  9  1  0  0  0  0
  9 10  2  0  0  0  0
  9 11  4  0  0  0  0
 11 12  1  0  0  0  0
 12 13  1  0  0  0  0
  7 14  1  0  0  0  0
 14 15  1  0  0  0  0
 15 16  2  0  0  0  0
 15 17  2  0  0  0  0
 17 18  1  0  0  0  0
 15 19  1  0  0  0  0
 19 20  1  0  0  0  0
  1 21  1  0  0  0  0
  1 22  1  0  0  0  0
  1 23  1  0  0  0  0
  2 24  1  0  0  0  0
  2 25  1  0  0  0  0
  6 26  1  0  0  0  0
  6 27  1  0  0  0  0
 12 28  1  0  0  0  0
 12 29  1  0  0  0  0
 13 30  1  0  0  0  0
 13 31  1  0  0  0  0
 13 32  1  0  0  0  0
 18 33  1  0  0  0  0
 18 34  1  0  0  0  0
 18 35  1  0  0  0  0
 20 36  1  0  0  0  0
 20 37  1  0  0  0  0
 20 38  1  0  0  0  0
M  END
