 xtb: 6.7.1 (edcfbbe)
          04092505213D

 41 40  0     0  0            999 V2000
    1.5424   -0.9135    3.6609 C   0  0  0  0  0  0  0  0  0  0  0  0
    1.4345    0.4253    2.9589 C   0  0  0  0  0  0  0  0  0  0  0  0
    0.9626    0.2960    1.5990 O   0  0  0  0  0  0  0  0  0  0  0  0
    1.7432   -0.4902    0.4676 P   0  0  0  0  0  0  0  0  0  0  0  0
    1.3906   -2.4120    0.2278 S   0  0  0  0  0  0  0  0  0  0  0  0
    3.2515   -0.1763    0.8782 O   0  0  0  0  0  0  0  0  0  0  0  0
    4.3635   -0.9274    0.3660 C   0  0  0  0  0  0  0  0  0  0  0  0
    4.6027   -0.6732   -1.1083 C   0  0  0  0  0  0  0  0  0  0  0  0
    1.4215    0.7429   -1.2254 S   0  0  0  0  0  0  0  0  0  0  0  0
    0.4772   -0.3836   -2.2798 C   0  0  0  0  0  0  0  0  0  0  0  0
   -1.2344    0.1499   -2.6093 S   0  0  0  0  0  0  0  0  0  0  0  0
   -2.0163    0.3632   -0.6598 P   0  0  0  0  0  0  0  0  0  0  0  0
   -3.9730    0.3596   -0.6208 S   0  0  0  0  0  0  0  0  0  0  0  0
   -1.2900    1.6402   -0.0438 O   0  0  0  0  0  0  0  0  0  0  0  0
   -1.5167    2.9621   -0.5701 C   0  0  0  0  0  0  0  0  0  0  0  0
   -2.5990    3.6789    0.2130 C   0  0  0  0  0  0  0  0  0  0  0  0
   -1.2737   -0.7787    0.1545 O   0  0  0  0  0  0  0  0  0  0  0  0
   -1.9752   -1.5839    1.1256 C   0  0  0  0  0  0  0  0  0  0  0  0
   -2.2980   -0.7889    2.3723 C   0  0  0  0  0  0  0  0  0  0  0  0
    0.5855   -1.4303    3.6552 H   0  0  0  0  0  0  0  0  0  0  0  0
    2.2748   -1.5423    3.1557 H   0  0  0  0  0  0  0  0  0  0  0  0
    1.8586   -0.7572    4.6876 H   0  0  0  0  0  0  0  0  0  0  0  0
    2.4000    0.9347    2.9424 H   0  0  0  0  0  0  0  0  0  0  0  0
    0.6874    1.0682    3.4281 H   0  0  0  0  0  0  0  0  0  0  0  0
    5.2060   -0.5928    0.9729 H   0  0  0  0  0  0  0  0  0  0  0  0
    4.1747   -1.9910    0.5451 H   0  0  0  0  0  0  0  0  0  0  0  0
    4.6619    0.3944   -1.3038 H   0  0  0  0  0  0  0  0  0  0  0  0
    5.5323   -1.1475   -1.4059 H   0  0  0  0  0  0  0  0  0  0  0  0
    3.7890   -1.0945   -1.6966 H   0  0  0  0  0  0  0  0  0  0  0  0
    0.4716   -1.3755   -1.8190 H   0  0  0  0  0  0  0  0  0  0  0  0
    0.9453   -0.4067   -3.2608 H   0  0  0  0  0  0  0  0  0  0  0  0
   -0.5517    3.4651   -0.4755 H   0  0  0  0  0  0  0  0  0  0  0  0
   -1.7839    2.8863   -1.6300 H   0  0  0  0  0  0  0  0  0  0  0  0
   -2.3325    3.7223    1.2651 H   0  0  0  0  0  0  0  0  0  0  0  0
   -2.7104    4.6871   -0.1728 H   0  0  0  0  0  0  0  0  0  0  0  0
   -3.5463    3.1533    0.1120 H   0  0  0  0  0  0  0  0  0  0  0  0
   -2.8893   -1.9700    0.6649 H   0  0  0  0  0  0  0  0  0  0  0  0
   -1.2866   -2.4076    1.3258 H   0  0  0  0  0  0  0  0  0  0  0  0
   -3.0183   -0.0081    2.1318 H   0  0  0  0  0  0  0  0  0  0  0  0
   -2.7250   -1.4495    3.1203 H   0  0  0  0  0  0  0  0  0  0  0  0
   -1.3971   -0.3243    2.7614 H   0  0  0  0  0  0  0  0  0  0  0  0
  1  2  1  0  0  0  0
  2  3  1  0  0  0  0
  3  4  2  0  0  0  0
  4  5  2  0  0  0  0
  4  6  2  0  0  0  0
  6  7  1  0  0  0  0
  7  8  1  0  0  0  0
  4  9  1  0  0  0  0
  9 10  1  0  0  0  0
 10 11  1  0  0  0  0
 11 12  1  0  0  0  0
 12 13  2  0  0  0  0
 12 14  2  0  0  0  0
 14 15  1  0  0  0  0
 15 16  1  0  0  0  0
 12 17  2  0  0  0  0
 17 18  1  0  0  0  0
 18 19  1  0  0  0  0
  1 20  1  0  0  0  0
  1 21  1  0  0  0  0
  1 22  1  0  0  0  0
  2 23  1  0  0  0  0
  2 24  1  0  0  0  0
  7 25  1  0  0  0  0
  7 26  1  0  0  0  0
  8 27  1  0  0  0  0
  8 28  1  0  0  0  0
  8 29  1  0  0  0  0
 10 30  1  0  0  0  0
 10 31  1  0  0  0  0
 15 32  1  0  0  0  0
 15 33  1  0  0  0  0
 16 34  1  0  0  0  0
 16 35  1  0  0  0  0
 16 36  1  0  0  0  0
 18 37  1  0  0  0  0
 18 38  1  0  0  0  0
 19 39  1  0  0  0  0
 19 40  1  0  0  0  0
 19 41  1  0  0  0  0
M  END
