 xtb: 6.7.1 (edcfbbe)
          04092505203D

 41 40  0     0  0            999 V2000
    4.0298   -1.4258   -2.3348 C   0  0  0  0  0  0  0  0  0  0  0  0
    4.6011   -1.1599   -0.9570 C   0  0  0  0  0  0  0  0  0  0  0  0
    3.5841   -1.1234    0.0592 O   0  0  0  0  0  0  0  0  0  0  0  0
    2.4864    0.0230    0.1266 P   0  0  0  0  0  0  0  0  0  0  0  0
    3.1367    1.8139   -0.3197 S   0  0  0  0  0  0  0  0  0  0  0  0
    1.9943   -0.0385    1.6226 O   0  0  0  0  0  0  0  0  0  0  0  0
    1.2017   -1.0721    2.2536 C   0  0  0  0  0  0  0  0  0  0  0  0
    1.8137   -2.4491    2.1143 C   0  0  0  0  0  0  0  0  0  0  0  0
    0.8763   -0.7066   -1.0707 S   0  0  0  0  0  0  0  0  0  0  0  0
    0.0671    0.8923   -1.2894 C   0  0  0  0  0  0  0  0  0  0  0  0
   -0.6926    1.5047    0.2384 S   0  0  0  0  0  0  0  0  0  0  0  0
   -2.4630    0.3534    0.0937 P   0  0  0  0  0  0  0  0  0  0  0  0
   -3.2367    0.1585   -1.7021 S   0  0  0  0  0  0  0  0  0  0  0  0
   -3.3914    0.9589    1.2313 O   0  0  0  0  0  0  0  0  0  0  0  0
   -3.7133    2.3510    1.4028 C   0  0  0  0  0  0  0  0  0  0  0  0
   -4.2338    2.9980    0.1360 C   0  0  0  0  0  0  0  0  0  0  0  0
   -2.0620   -1.0198    0.7730 O   0  0  0  0  0  0  0  0  0  0  0  0
   -2.6204   -2.3018    0.4018 C   0  0  0  0  0  0  0  0  0  0  0  0
   -1.5015   -3.3008    0.1882 C   0  0  0  0  0  0  0  0  0  0  0  0
    3.4347   -0.5747   -2.6626 H   0  0  0  0  0  0  0  0  0  0  0  0
    4.8439   -1.5738   -3.0371 H   0  0  0  0  0  0  0  0  0  0  0  0
    3.3996   -2.3113   -2.3209 H   0  0  0  0  0  0  0  0  0  0  0  0
    5.1394   -0.2070   -0.9419 H   0  0  0  0  0  0  0  0  0  0  0  0
    5.2622   -1.9648   -0.6330 H   0  0  0  0  0  0  0  0  0  0  0  0
    1.1635   -0.7498    3.2955 H   0  0  0  0  0  0  0  0  0  0  0  0
    0.1946   -1.0426    1.8273 H   0  0  0  0  0  0  0  0  0  0  0  0
    2.8431   -2.4377    2.4630 H   0  0  0  0  0  0  0  0  0  0  0  0
    1.2427   -3.1534    2.7120 H   0  0  0  0  0  0  0  0  0  0  0  0
    1.7986   -2.7666    1.0737 H   0  0  0  0  0  0  0  0  0  0  0  0
   -0.7039    0.7671   -2.0514 H   0  0  0  0  0  0  0  0  0  0  0  0
    0.8103    1.6328   -1.5866 H   0  0  0  0  0  0  0  0  0  0  0  0
   -4.4718    2.3438    2.1876 H   0  0  0  0  0  0  0  0  0  0  0  0
   -2.8164    2.8653    1.7599 H   0  0  0  0  0  0  0  0  0  0  0  0
   -4.5459    4.0146    0.3530 H   0  0  0  0  0  0  0  0  0  0  0  0
   -3.4530    3.0226   -0.6232 H   0  0  0  0  0  0  0  0  0  0  0  0
   -5.0795    2.4380   -0.2565 H   0  0  0  0  0  0  0  0  0  0  0  0
   -3.2739   -2.6017    1.2232 H   0  0  0  0  0  0  0  0  0  0  0  0
   -3.2150   -2.1760   -0.5091 H   0  0  0  0  0  0  0  0  0  0  0  0
   -0.8521   -2.9715   -0.6194 H   0  0  0  0  0  0  0  0  0  0  0  0
   -0.9144   -3.4077    1.0953 H   0  0  0  0  0  0  0  0  0  0  0  0
   -1.9356   -4.2604   -0.0731 H   0  0  0  0  0  0  0  0  0  0  0  0
  1  2  1  0  0  0  0
  2  3  1  0  0  0  0
  3  4  2  0  0  0  0
  4  5  2  0  0  0  0
  4  6  2  0  0  0  0
  6  7  1  0  0  0  0
  7  8  1  0  0  0  0
  4  9  1  0  0  0  0
  9 10  1  0  0  0  0
 10 11  1  0  0  0  0
 11 12  1  0  0  0  0
 12 13  2  0  0  0  0
 12 14  2  0  0  0  0
 14 15  1  0  0  0  0
 15 16  1  0  0  0  0
 12 17  2  0  0  0  0
 17 18  1  0  0  0  0
 18 19  1  0  0  0  0
  1 20  1  0  0  0  0
  1 21  1  0  0  0  0
  1 22  1  0  0  0  0
  2 23  1  0  0  0  0
  2 24  1  0  0  0  0
  7 25  1  0  0  0  0
  7 26  1  0  0  0  0
  8 27  1  0  0  0  0
  8 28  1  0  0  0  0
  8 29  1  0  0  0  0
 10 30  1  0  0  0  0
 10 31  1  0  0  0  0
 15 32  1  0  0  0  0
 15 33  1  0  0  0  0
 16 34  1  0  0  0  0
 16 35  1  0  0  0  0
 16 36  1  0  0  0  0
 18 37  1  0  0  0  0
 18 38  1  0  0  0  0
 19 39  1  0  0  0  0
 19 40  1  0  0  0  0
 19 41  1  0  0  0  0
M  END
