 xtb: 6.7.1 (edcfbbe)
          04092507313D

 38 37  0     0  0            999 V2000
    4.1315   -2.0468    1.1706 C   0  0  0  0  0  0  0  0  0  0  0  0
    2.6811   -2.0295    0.7329 C   0  0  0  0  0  0  0  0  0  0  0  0
    2.5527   -1.0899   -0.3543 O   0  0  0  0  0  0  0  0  0  0  0  0
    1.4158   -1.0348   -1.0026 C   0  0  0  0  0  0  0  0  0  0  0  0
    0.4429   -1.7205   -0.7393 O   0  0  0  0  0  0  0  0  0  0  0  0
    1.4306   -0.0130   -2.1172 C   0  0  0  0  0  0  0  0  0  0  0  0
    0.3013    1.0014   -1.9108 C   0  0  0  0  0  0  0  0  0  0  0  0
    0.2637    1.6858   -2.7624 H   0  0  0  0  0  0  0  0  0  0  0  0
    0.4836    1.8107   -0.6385 C   0  0  0  0  0  0  0  0  0  0  0  0
   -0.4142    1.9775    0.1634 O   0  0  0  0  0  0  0  0  0  0  0  0
    1.6941    2.2845   -0.5308 O   0  0  0  0  0  0  0  0  0  0  0  0
    2.0614    2.9937    0.6734 C   0  0  0  0  0  0  0  0  0  0  0  0
    2.6005    2.0200    1.7080 C   0  0  0  0  0  0  0  0  0  0  0  0
   -1.3547    0.2284   -1.8682 S   0  0  0  0  0  0  0  0  0  0  0  0
   -1.6784   -0.2564    0.1649 P   0  0  0  0  0  0  0  0  0  0  0  0
   -0.5150   -0.4097    1.7530 S   0  0  0  0  0  0  0  0  0  0  0  0
   -2.8939    0.7616    0.3602 O   0  0  0  0  0  0  0  0  0  0  0  0
   -3.5942    0.8719    1.6018 C   0  0  0  0  0  0  0  0  0  0  0  0
   -2.5442   -1.6035    0.0013 O   0  0  0  0  0  0  0  0  0  0  0  0
   -2.0531   -2.9308    0.1701 C   0  0  0  0  0  0  0  0  0  0  0  0
    4.2509   -2.7676    1.9722 H   0  0  0  0  0  0  0  0  0  0  0  0
    4.7694   -2.3259    0.3374 H   0  0  0  0  0  0  0  0  0  0  0  0
    4.4259   -1.0656    1.5297 H   0  0  0  0  0  0  0  0  0  0  0  0
    2.0127   -1.7124    1.5399 H   0  0  0  0  0  0  0  0  0  0  0  0
    2.3492   -3.0099    0.3774 H   0  0  0  0  0  0  0  0  0  0  0  0
    1.2588   -0.5317   -3.0609 H   0  0  0  0  0  0  0  0  0  0  0  0
    2.3929    0.4974   -2.1290 H   0  0  0  0  0  0  0  0  0  0  0  0
    2.8272    3.6974    0.3475 H   0  0  0  0  0  0  0  0  0  0  0  0
    1.1843    3.5237    1.0529 H   0  0  0  0  0  0  0  0  0  0  0  0
    1.8221    1.3202    2.0101 H   0  0  0  0  0  0  0  0  0  0  0  0
    3.4343    1.4607    1.2928 H   0  0  0  0  0  0  0  0  0  0  0  0
    2.9331    2.5696    2.5819 H   0  0  0  0  0  0  0  0  0  0  0  0
   -4.2520    0.0128    1.7353 H   0  0  0  0  0  0  0  0  0  0  0  0
   -4.1690    1.7919    1.5323 H   0  0  0  0  0  0  0  0  0  0  0  0
   -2.8851    0.9274    2.4305 H   0  0  0  0  0  0  0  0  0  0  0  0
   -2.9256   -3.5426    0.3863 H   0  0  0  0  0  0  0  0  0  0  0  0
   -1.3438   -2.9631    0.9991 H   0  0  0  0  0  0  0  0  0  0  0  0
   -1.5589   -3.2612   -0.7416 H   0  0  0  0  0  0  0  0  0  0  0  0
  1  2  1  0  0  0  0
  2  3  1  0  0  0  0
  3  4  4  0  0  0  0
  4  5  2  0  0  0  0
  4  6  1  0  0  0  0
  6  7  1  0  0  0  0
  7  8  1  0  0  0  0
  7  9  1  0  0  0  0
  9 10  2  0  0  0  0
  9 11  4  0  0  0  0
 11 12  1  0  0  0  0
 12 13  1  0  0  0  0
  7 14  1  0  0  0  0
 14 15  1  0  0  0  0
 15 16  2  0  0  0  0
 15 17  1  0  0  0  0
 17 18  1  0  0  0  0
 15 19  1  0  0  0  0
 19 20  1  0  0  0  0
  1 21  1  0  0  0  0
  1 22  1  0  0  0  0
  1 23  1  0  0  0  0
  2 24  1  0  0  0  0
  2 25  1  0  0  0  0
  6 26  1  0  0  0  0
  6 27  1  0  0  0  0
 12 28  1  0  0  0  0
 12 29  1  0  0  0  0
 13 30  1  0  0  0  0
 13 31  1  0  0  0  0
 13 32  1  0  0  0  0
 18 33  1  0  0  0  0
 18 34  1  0  0  0  0
 18 35  1  0  0  0  0
 20 36  1  0  0  0  0
 20 37  1  0  0  0  0
 20 38  1  0  0  0  0
M  END
