 xtb: 6.7.1 (edcfbbe)
          04032519403D

 19 19  0     0  0            999 V2000
   -2.5873    0.5776   -0.0008 C   0  0  0  0  0  0  0  0  0  0  0  0
   -1.2286   -0.0621   -0.0000 C   0  0  0  0  0  0  0  0  0  0  0  0
   -1.1360   -1.4488    0.0001 C   0  0  0  0  0  0  0  0  0  0  0  0
    0.0923   -2.0826    0.0005 C   0  0  0  0  0  0  0  0  0  0  0  0
    1.2509   -1.3331    0.0002 C   0  0  0  0  0  0  0  0  0  0  0  0
    1.1740    0.0542   -0.0001 C   0  0  0  0  0  0  0  0  0  0  0  0
   -0.0635    0.7071    0.0004 C   0  0  0  0  0  0  0  0  0  0  0  0
   -0.0913    2.2127    0.0009 C   0  0  0  0  0  0  0  0  0  0  0  0
    2.3577    0.7359   -0.0008 O   0  0  0  0  0  0  0  0  0  0  0  0
   -2.7217    1.2003   -0.8836 H   0  0  0  0  0  0  0  0  0  0  0  0
   -3.3596   -0.1867   -0.0024 H   0  0  0  0  0  0  0  0  0  0  0  0
   -2.7238    1.1983    0.8832 H   0  0  0  0  0  0  0  0  0  0  0  0
   -2.0403   -2.0393   -0.0001 H   0  0  0  0  0  0  0  0  0  0  0  0
    0.1490   -3.1605    0.0007 H   0  0  0  0  0  0  0  0  0  0  0  0
    2.2259   -1.7948    0.0001 H   0  0  0  0  0  0  0  0  0  0  0  0
    0.4007    2.6051   -0.8897 H   0  0  0  0  0  0  0  0  0  0  0  0
   -1.1082    2.5858    0.0088 H   0  0  0  0  0  0  0  0  0  0  0  0
    0.4140    2.6046    0.8843 H   0  0  0  0  0  0  0  0  0  0  0  0
    2.1975    1.6910   -0.0037 H   0  0  0  0  0  0  0  0  0  0  0  0
  1  2  1  0  0  0  0
  2  3  4  0  0  0  0
  3  4  4  0  0  0  0
  4  5  4  0  0  0  0
  5  6  4  0  0  0  0
  2  7  4  0  0  0  0
  6  7  4  0  0  0  0
  7  8  1  0  0  0  0
  6  9  1  0  0  0  0
  1 10  1  0  0  0  0
  1 11  1  0  0  0  0
  1 12  1  0  0  0  0
  3 13  1  0  0  0  0
  4 14  1  0  0  0  0
  5 15  1  0  0  0  0
  8 16  1  0  0  0  0
  8 17  1  0  0  0  0
  8 18  1  0  0  0  0
  9 19  1  0  0  0  0
M  END
