 xtb: 6.7.1 (edcfbbe)
          04092505213D

 41 40  0     0  0            999 V2000
    4.2496    0.5182   -2.4593 C   0  0  0  0  0  0  0  0  0  0  0  0
    4.0139   -0.9511   -2.1709 C   0  0  0  0  0  0  0  0  0  0  0  0
    3.9126   -1.2305   -0.7643 O   0  0  0  0  0  0  0  0  0  0  0  0
    2.8798   -0.5553    0.2266 P   0  0  0  0  0  0  0  0  0  0  0  0
    3.3094    1.2290    0.9354 S   0  0  0  0  0  0  0  0  0  0  0  0
    2.9444   -1.7120    1.3039 O   0  0  0  0  0  0  0  0  0  0  0  0
    2.5700   -1.5155    2.6774 C   0  0  0  0  0  0  0  0  0  0  0  0
    1.0647   -1.5288    2.8537 C   0  0  0  0  0  0  0  0  0  0  0  0
    1.0118   -0.7268   -0.7974 S   0  0  0  0  0  0  0  0  0  0  0  0
    0.3243    0.9218   -0.4697 C   0  0  0  0  0  0  0  0  0  0  0  0
   -0.9890    0.9210    0.7731 S   0  0  0  0  0  0  0  0  0  0  0  0
   -2.6643    0.6027   -0.5248 P   0  0  0  0  0  0  0  0  0  0  0  0
   -2.2739    0.1382   -2.3827 S   0  0  0  0  0  0  0  0  0  0  0  0
   -3.4750    1.9526   -0.4351 O   0  0  0  0  0  0  0  0  0  0  0  0
   -3.8595    2.6104    0.7962 C   0  0  0  0  0  0  0  0  0  0  0  0
   -5.2068    2.1226    1.2878 C   0  0  0  0  0  0  0  0  0  0  0  0
   -3.5995   -0.4201    0.2582 O   0  0  0  0  0  0  0  0  0  0  0  0
   -3.4648   -1.8459    0.1312 C   0  0  0  0  0  0  0  0  0  0  0  0
   -2.1930   -2.3614    0.7735 C   0  0  0  0  0  0  0  0  0  0  0  0
    4.4213    0.6550   -3.5222 H   0  0  0  0  0  0  0  0  0  0  0  0
    3.3813    1.1060   -2.1632 H   0  0  0  0  0  0  0  0  0  0  0  0
    5.1136    0.8782   -1.9054 H   0  0  0  0  0  0  0  0  0  0  0  0
    4.8611   -1.5596   -2.4923 H   0  0  0  0  0  0  0  0  0  0  0  0
    3.1018   -1.3019   -2.6626 H   0  0  0  0  0  0  0  0  0  0  0  0
    3.0423   -2.3483    3.2006 H   0  0  0  0  0  0  0  0  0  0  0  0
    2.9957   -0.5694    3.0290 H   0  0  0  0  0  0  0  0  0  0  0  0
    0.8273   -1.5140    3.9124 H   0  0  0  0  0  0  0  0  0  0  0  0
    0.6221   -0.6509    2.3842 H   0  0  0  0  0  0  0  0  0  0  0  0
    0.6447   -2.4235    2.4015 H   0  0  0  0  0  0  0  0  0  0  0  0
   -0.0811    1.2924   -1.4097 H   0  0  0  0  0  0  0  0  0  0  0  0
    1.1229    1.5631   -0.0878 H   0  0  0  0  0  0  0  0  0  0  0  0
   -3.0794    2.4418    1.5444 H   0  0  0  0  0  0  0  0  0  0  0  0
   -3.8932    3.6684    0.5299 H   0  0  0  0  0  0  0  0  0  0  0  0
   -5.1530    1.0738    1.5655 H   0  0  0  0  0  0  0  0  0  0  0  0
   -5.4993    2.7082    2.1539 H   0  0  0  0  0  0  0  0  0  0  0  0
   -5.9528    2.2412    0.5065 H   0  0  0  0  0  0  0  0  0  0  0  0
   -4.3530   -2.2369    0.6299 H   0  0  0  0  0  0  0  0  0  0  0  0
   -3.4927   -2.1031   -0.9323 H   0  0  0  0  0  0  0  0  0  0  0  0
   -2.1074   -1.9889    1.7915 H   0  0  0  0  0  0  0  0  0  0  0  0
   -2.2143   -3.4464    0.7867 H   0  0  0  0  0  0  0  0  0  0  0  0
   -1.3255   -2.0372    0.1999 H   0  0  0  0  0  0  0  0  0  0  0  0
  1  2  1  0  0  0  0
  2  3  1  0  0  0  0
  3  4  2  0  0  0  0
  4  5  2  0  0  0  0
  4  6  2  0  0  0  0
  6  7  1  0  0  0  0
  7  8  1  0  0  0  0
  4  9  1  0  0  0  0
  9 10  1  0  0  0  0
 10 11  1  0  0  0  0
 11 12  1  0  0  0  0
 12 13  2  0  0  0  0
 12 14  2  0  0  0  0
 14 15  1  0  0  0  0
 15 16  1  0  0  0  0
 12 17  2  0  0  0  0
 17 18  1  0  0  0  0
 18 19  1  0  0  0  0
  1 20  1  0  0  0  0
  1 21  1  0  0  0  0
  1 22  1  0  0  0  0
  2 23  1  0  0  0  0
  2 24  1  0  0  0  0
  7 25  1  0  0  0  0
  7 26  1  0  0  0  0
  8 27  1  0  0  0  0
  8 28  1  0  0  0  0
  8 29  1  0  0  0  0
 10 30  1  0  0  0  0
 10 31  1  0  0  0  0
 15 32  1  0  0  0  0
 15 33  1  0  0  0  0
 16 34  1  0  0  0  0
 16 35  1  0  0  0  0
 16 36  1  0  0  0  0
 18 37  1  0  0  0  0
 18 38  1  0  0  0  0
 19 39  1  0  0  0  0
 19 40  1  0  0  0  0
 19 41  1  0  0  0  0
M  END
