 xtb: 6.7.1 (edcfbbe)
          04092514003D

 41 40  0     0  0            999 V2000
    0.1933   -1.5289    3.0094 C   0  0  0  0  0  0  0  0  0  0  0  0
    1.4750   -1.5361    2.2026 C   0  0  0  0  0  0  0  0  0  0  0  0
    1.5876   -0.2648    1.5246 O   0  0  0  0  0  0  0  0  0  0  0  0
    2.3818   -0.0358    0.1780 P   0  0  0  0  0  0  0  0  0  0  0  0
    3.1699   -1.6435   -0.6286 S   0  0  0  0  0  0  0  0  0  0  0  0
    3.3649    1.0998    0.6865 O   0  0  0  0  0  0  0  0  0  0  0  0
    4.2490    1.8594   -0.1629 C   0  0  0  0  0  0  0  0  0  0  0  0
    5.5891    1.1696   -0.3338 C   0  0  0  0  0  0  0  0  0  0  0  0
    1.0416    1.0444   -1.0653 S   0  0  0  0  0  0  0  0  0  0  0  0
    0.3005   -0.3887   -1.8919 C   0  0  0  0  0  0  0  0  0  0  0  0
   -0.6596   -1.4382   -0.7691 S   0  0  0  0  0  0  0  0  0  0  0  0
   -2.1520   -0.0088   -0.2831 P   0  0  0  0  0  0  0  0  0  0  0  0
   -2.7266    1.1538   -1.7567 S   0  0  0  0  0  0  0  0  0  0  0  0
   -1.5338    0.7086    0.9811 O   0  0  0  0  0  0  0  0  0  0  0  0
   -1.6937    2.1137    1.2529 C   0  0  0  0  0  0  0  0  0  0  0  0
   -3.0203    2.3881    1.9298 C   0  0  0  0  0  0  0  0  0  0  0  0
   -3.2640   -0.9033    0.4125 O   0  0  0  0  0  0  0  0  0  0  0  0
   -4.1124   -1.8063   -0.3287 C   0  0  0  0  0  0  0  0  0  0  0  0
   -5.4653   -1.1759   -0.5991 C   0  0  0  0  0  0  0  0  0  0  0  0
    0.1249   -2.4532    3.5736 H   0  0  0  0  0  0  0  0  0  0  0  0
    0.1945   -0.6860    3.6946 H   0  0  0  0  0  0  0  0  0  0  0  0
   -0.6692   -1.4442    2.3525 H   0  0  0  0  0  0  0  0  0  0  0  0
    1.4814   -2.3409    1.4601 H   0  0  0  0  0  0  0  0  0  0  0  0
    2.3496   -1.6422    2.8490 H   0  0  0  0  0  0  0  0  0  0  0  0
    3.7651    2.0282   -1.1291 H   0  0  0  0  0  0  0  0  0  0  0  0
    4.3612    2.8123    0.3583 H   0  0  0  0  0  0  0  0  0  0  0  0
    5.4716    0.2311   -0.8707 H   0  0  0  0  0  0  0  0  0  0  0  0
    6.2530    1.8191   -0.8959 H   0  0  0  0  0  0  0  0  0  0  0  0
    6.0295    0.9625    0.6377 H   0  0  0  0  0  0  0  0  0  0  0  0
    1.0865   -1.0200   -2.3066 H   0  0  0  0  0  0  0  0  0  0  0  0
   -0.3497    0.0074   -2.6715 H   0  0  0  0  0  0  0  0  0  0  0  0
   -0.8474    2.3602    1.8960 H   0  0  0  0  0  0  0  0  0  0  0  0
   -1.6134    2.6681    0.3117 H   0  0  0  0  0  0  0  0  0  0  0  0
   -3.8373    2.1429    1.2527 H   0  0  0  0  0  0  0  0  0  0  0  0
   -3.1160    1.7861    2.8292 H   0  0  0  0  0  0  0  0  0  0  0  0
   -3.0792    3.4403    2.1905 H   0  0  0  0  0  0  0  0  0  0  0  0
   -3.6173   -2.0869   -1.2628 H   0  0  0  0  0  0  0  0  0  0  0  0
   -4.2064   -2.6867    0.3098 H   0  0  0  0  0  0  0  0  0  0  0  0
   -6.1064   -1.9045   -1.0853 H   0  0  0  0  0  0  0  0  0  0  0  0
   -5.9241   -0.8617    0.3342 H   0  0  0  0  0  0  0  0  0  0  0  0
   -5.3571   -0.3098   -1.2483 H   0  0  0  0  0  0  0  0  0  0  0  0
  1  2  1  0  0  0  0
  2  3  1  0  0  0  0
  3  4  2  0  0  0  0
  4  5  2  0  0  0  0
  4  6  2  0  0  0  0
  6  7  1  0  0  0  0
  7  8  1  0  0  0  0
  4  9  1  0  0  0  0
  9 10  1  0  0  0  0
 10 11  1  0  0  0  0
 11 12  1  0  0  0  0
 12 13  2  0  0  0  0
 12 14  2  0  0  0  0
 14 15  1  0  0  0  0
 15 16  1  0  0  0  0
 12 17  2  0  0  0  0
 17 18  1  0  0  0  0
 18 19  1  0  0  0  0
  1 20  1  0  0  0  0
  1 21  1  0  0  0  0
  1 22  1  0  0  0  0
  2 23  1  0  0  0  0
  2 24  1  0  0  0  0
  7 25  1  0  0  0  0
  7 26  1  0  0  0  0
  8 27  1  0  0  0  0
  8 28  1  0  0  0  0
  8 29  1  0  0  0  0
 10 30  1  0  0  0  0
 10 31  1  0  0  0  0
 15 32  1  0  0  0  0
 15 33  1  0  0  0  0
 16 34  1  0  0  0  0
 16 35  1  0  0  0  0
 16 36  1  0  0  0  0
 18 37  1  0  0  0  0
 18 38  1  0  0  0  0
 19 39  1  0  0  0  0
 19 40  1  0  0  0  0
 19 41  1  0  0  0  0
M  END
