 xtb: 6.7.1 (edcfbbe)
          04032520153D

 12 12  0     0  0            999 V2000
    0.5365   -1.2768   -0.0001 C   0  0  0  0  0  0  0  0  0  0  0  0
   -0.8375   -1.1030    0.0001 C   0  0  0  0  0  0  0  0  0  0  0  0
   -1.3740    0.1738    0.0001 C   0  0  0  0  0  0  0  0  0  0  0  0
   -0.5365    1.2768   -0.0001 C   0  0  0  0  0  0  0  0  0  0  0  0
    0.8375    1.1030   -0.0000 C   0  0  0  0  0  0  0  0  0  0  0  0
    1.3740   -0.1738    0.0000 C   0  0  0  0  0  0  0  0  0  0  0  0
    0.9548   -2.2724   -0.0001 H   0  0  0  0  0  0  0  0  0  0  0  0
   -1.4906   -1.9631   -0.0003 H   0  0  0  0  0  0  0  0  0  0  0  0
   -2.4454    0.3093   -0.0003 H   0  0  0  0  0  0  0  0  0  0  0  0
   -0.9548    2.2725    0.0002 H   0  0  0  0  0  0  0  0  0  0  0  0
    1.4906    1.9631    0.0002 H   0  0  0  0  0  0  0  0  0  0  0  0
    2.4454   -0.3093    0.0001 H   0  0  0  0  0  0  0  0  0  0  0  0
  1  2  4  0  0  0  0
  2  3  4  0  0  0  0
  3  4  4  0  0  0  0
  4  5  4  0  0  0  0
  1  6  4  0  0  0  0
  5  6  4  0  0  0  0
  1  7  1  0  0  0  0
  2  8  1  0  0  0  0
  3  9  1  0  0  0  0
  4 10  1  0  0  0  0
  5 11  1  0  0  0  0
  6 12  1  0  0  0  0
M  END
