11
 xtb: 6.7.1 (edcfbbe)
C           -1.67609534998298        1.17597980112607        0.00039038632019
C           -2.31057574496969       -0.06315213674054        0.00030363994680
C           -1.52763477940631       -1.20680281455384        0.00023479659072
N           -0.18217808076244       -1.17904905336778        0.00005804950008
C            0.38228055367146        0.01123187618586        0.00002815922441
C           -0.28847902715973        1.22823778059752        0.00028618620152
Cl           2.15496312512918        0.03910877114720        0.00012473683896
H           -2.25088043276497        2.09600007176785        0.00047425608954
H           -3.39146831793245       -0.14240225690247        0.00031801835834
H           -1.98303547212016       -2.19322923820114        0.00002620090029
H            0.24804780085872        2.16888161765680        0.00036164280562
