 xtb: 6.7.1 (edcfbbe)
          04092505203D

 41 40  0     0  0            999 V2000
    5.3744   -0.5512   -2.1837 C   0  0  0  0  0  0  0  0  0  0  0  0
    3.8977   -0.7234   -1.8906 C   0  0  0  0  0  0  0  0  0  0  0  0
    3.5757    0.0882   -0.7464 O   0  0  0  0  0  0  0  0  0  0  0  0
    2.0634    0.3892   -0.3432 P   0  0  0  0  0  0  0  0  0  0  0  0
    1.0260    1.1470   -1.8205 S   0  0  0  0  0  0  0  0  0  0  0  0
    2.2576    1.3889    0.8477 O   0  0  0  0  0  0  0  0  0  0  0  0
    2.5929    1.0597    2.2172 C   0  0  0  0  0  0  0  0  0  0  0  0
    3.8185    0.1806    2.3283 C   0  0  0  0  0  0  0  0  0  0  0  0
    1.3756   -1.4863    0.4019 S   0  0  0  0  0  0  0  0  0  0  0  0
   -0.0051   -1.8221   -0.7341 C   0  0  0  0  0  0  0  0  0  0  0  0
   -1.6040   -1.9985    0.0991 S   0  0  0  0  0  0  0  0  0  0  0  0
   -2.0852    0.0153    0.4459 P   0  0  0  0  0  0  0  0  0  0  0  0
   -0.8807    1.1476    1.4913 S   0  0  0  0  0  0  0  0  0  0  0  0
   -3.4962   -0.0459    1.1628 O   0  0  0  0  0  0  0  0  0  0  0  0
   -4.6320   -0.7643    0.6190 C   0  0  0  0  0  0  0  0  0  0  0  0
   -4.8305   -2.0768    1.3497 C   0  0  0  0  0  0  0  0  0  0  0  0
   -2.3273    0.4702   -1.0698 O   0  0  0  0  0  0  0  0  0  0  0  0
   -2.3679    1.8547   -1.4534 C   0  0  0  0  0  0  0  0  0  0  0  0
   -3.6518    2.5208   -1.0040 C   0  0  0  0  0  0  0  0  0  0  0  0
    5.6389   -1.1539   -3.0462 H   0  0  0  0  0  0  0  0  0  0  0  0
    5.5923    0.4921   -2.3939 H   0  0  0  0  0  0  0  0  0  0  0  0
    5.9627   -0.8683   -1.3277 H   0  0  0  0  0  0  0  0  0  0  0  0
    3.6576   -1.7634   -1.6505 H   0  0  0  0  0  0  0  0  0  0  0  0
    3.2804   -0.3975   -2.7350 H   0  0  0  0  0  0  0  0  0  0  0  0
    2.7506    2.0390    2.6715 H   0  0  0  0  0  0  0  0  0  0  0  0
    1.7161    0.5892    2.6707 H   0  0  0  0  0  0  0  0  0  0  0  0
    4.6565    0.6394    1.8099 H   0  0  0  0  0  0  0  0  0  0  0  0
    4.0665    0.0545    3.3776 H   0  0  0  0  0  0  0  0  0  0  0  0
    3.6231   -0.7981    1.8922 H   0  0  0  0  0  0  0  0  0  0  0  0
    0.1815   -2.7830   -1.2062 H   0  0  0  0  0  0  0  0  0  0  0  0
   -0.0583   -1.0150   -1.4706 H   0  0  0  0  0  0  0  0  0  0  0  0
   -5.4795   -0.0943    0.7751 H   0  0  0  0  0  0  0  0  0  0  0  0
   -4.4765   -0.9232   -0.4510 H   0  0  0  0  0  0  0  0  0  0  0  0
   -3.9851   -2.7399    1.1796 H   0  0  0  0  0  0  0  0  0  0  0  0
   -4.9253   -1.8957    2.4167 H   0  0  0  0  0  0  0  0  0  0  0  0
   -5.7354   -2.5518    0.9841 H   0  0  0  0  0  0  0  0  0  0  0  0
   -1.4952    2.3620   -1.0290 H   0  0  0  0  0  0  0  0  0  0  0  0
   -2.2710    1.8320   -2.5399 H   0  0  0  0  0  0  0  0  0  0  0  0
   -3.6649    3.5457   -1.3612 H   0  0  0  0  0  0  0  0  0  0  0  0
   -4.5125    1.9894   -1.4016 H   0  0  0  0  0  0  0  0  0  0  0  0
   -3.7040    2.5253    0.0845 H   0  0  0  0  0  0  0  0  0  0  0  0
  1  2  1  0  0  0  0
  2  3  1  0  0  0  0
  3  4  2  0  0  0  0
  4  5  2  0  0  0  0
  4  6  2  0  0  0  0
  6  7  1  0  0  0  0
  7  8  1  0  0  0  0
  4  9  1  0  0  0  0
  9 10  1  0  0  0  0
 10 11  1  0  0  0  0
 11 12  1  0  0  0  0
 12 13  2  0  0  0  0
 12 14  2  0  0  0  0
 14 15  1  0  0  0  0
 15 16  1  0  0  0  0
 12 17  1  0  0  0  0
 17 18  1  0  0  0  0
 18 19  1  0  0  0  0
  1 20  1  0  0  0  0
  1 21  1  0  0  0  0
  1 22  1  0  0  0  0
  2 23  1  0  0  0  0
  2 24  1  0  0  0  0
  7 25  1  0  0  0  0
  7 26  1  0  0  0  0
  8 27  1  0  0  0  0
  8 28  1  0  0  0  0
  8 29  1  0  0  0  0
 10 30  1  0  0  0  0
 10 31  1  0  0  0  0
 15 32  1  0  0  0  0
 15 33  1  0  0  0  0
 16 34  1  0  0  0  0
 16 35  1  0  0  0  0
 16 36  1  0  0  0  0
 18 37  1  0  0  0  0
 18 38  1  0  0  0  0
 19 39  1  0  0  0  0
 19 40  1  0  0  0  0
 19 41  1  0  0  0  0
M  END
