19
 xtb: 6.7.1 (edcfbbe)
C            2.17103467246837       -1.20098549457573       -0.05940075553598
C            1.40794418924994        0.09259989973237        0.04398235892105
O            1.99342082906008        1.19192475414375        0.17744427309089
N            0.06982168728568        0.01605991831048       -0.00651525635480
C           -0.72506926480973       -1.22508472056942       -0.11095475056830
C           -2.13428426478699       -0.75777767903507        0.24991634891550
C           -2.17118333182878        0.67378322730422       -0.29247566714295
C           -0.78768217891999        1.21494935830183        0.06428524891553
H            1.84177211906052       -1.79318244031693       -0.91867601971480
H            2.01069770593679       -1.80775576242086        0.83853544310720
H            3.23477211341696       -0.98166245378664       -0.15268667807881
H           -0.68796273523515       -1.61746068465555       -1.13562007003416
H           -0.34385200625434       -1.99186646040735        0.56841193922317
H           -2.90220125293410       -1.40451650897928       -0.18023317271240
H           -2.25531801602752       -0.74966557204354        1.33886765552696
H           -2.29620630236694        0.65840567059312       -1.38073357567396
H           -2.97154481755225        1.27836360798316        0.13939511083803
H           -0.42965578765276        1.98133223495080       -0.62863103714274
H           -0.76629960646573        1.63431357724498        1.07832413203887
