41
 xtb: 6.7.1 (edcfbbe)
C            5.77884272117791        1.13684564672499       -1.28545283602475
C            4.73515286772429        1.02872698014516       -0.20468611897157
O            3.74393398154640        0.04225289291394       -0.65777084199129
P            2.46669381706360       -0.31862629097952        0.25765973353984
S            2.78421356878470       -0.59981356521031        2.15853320616465
O            1.84579478330646       -1.54552055925314       -0.56987099293708
C            2.17522135578580       -2.94370961816269       -0.24536094153758
C            3.57414452523601       -3.30659915469814       -0.67755955619732
S            1.15726379947057        1.26712358697912       -0.24628155186503
C           -0.02937202734580        1.18803492463356        1.14953651300429
S           -1.10204002488344       -0.29904855758636        1.28631028109495
P           -2.39602954979375       -0.09104622229070       -0.38668534350717
S           -1.81060841748917       -0.77736396948641       -2.10923179918223
O           -2.71782169341377        1.48214550968499       -0.29857266147864
C           -3.29867369211079        2.22589372935722       -1.42854543568771
C           -4.77107365732746        1.93567981613970       -1.58175082087626
O           -3.69854791720363       -0.89732642398941        0.10845865581185
C           -4.45654426429782       -0.49654567076649        1.31030364118904
C           -5.88648709112584       -0.92146216425216        1.09956369634624
H            5.33849246534403        1.48410820658385       -2.22425567020986
H            6.53883136066134        1.85878539301084       -0.97163939096965
H            6.26692619726608        0.17253953252875       -1.45327245415710
H            4.22492202701226        1.98312661406897       -0.03630532734516
H            5.15973596747461        0.67482795569653        0.73936080482439
H            2.02423260203382       -3.08973358507714        0.82847249573555
H            1.42161891994746       -3.51346768817069       -0.79227657370694
H            3.72496637638261       -4.37737716219793       -0.50512350244431
H            3.71984817906525       -3.10436973972813       -1.74248271672810
H            4.32901231576314       -2.76108282435035       -0.10338752803832
H           -0.64690334231252        2.08505932827300        1.06562635455398
H            0.52595017859832        1.21669453986361        2.09158139524485
H           -3.11617386436282        3.26995887174309       -1.16684051061067
H           -2.73214044298933        1.97712840875922       -2.33088981822327
H           -5.17365476576029        2.57983024109037       -2.37051009998521
H           -4.94890718853353        0.89542769287579       -1.87045852928952
H           -5.31116451553888        2.14965193180730       -0.65487381537902
H           -4.00403148630419       -1.00455574196463        2.16633952563388
H           -4.37198079788775        0.58533463345127        1.44388501397390
H           -6.46586929284746       -0.66370166034618        1.99168762331842
H           -6.32640274279839       -0.40739223492073        0.24027959677645
H           -5.95542516466473       -2.00185300673923        0.94443327330477
