  23
 
 C         -3.0446030690       -2.0268407663       -0.8399054565
 O         -1.7342326193       -2.1484108155       -0.2952926767
 C         -0.8841308341       -1.0906205460       -0.2014402100
 C          0.4706330781       -1.4997989174       -0.2825824690
 C          1.5083947958       -0.5593840516       -0.2058340278
 C          1.1576556005        0.7846635954       -0.0591578325
 C         -0.1696527332        1.2208232908        0.0466052128
 C         -1.1916853791        0.2486624906       -0.0082439522
 Cl        -2.8257700586        0.7679740603        0.2274042378
 C         -0.4445899752        2.6410945343        0.2146255327
 O         -1.5337577360        3.1736354939        0.3056106741
 Cl         2.4762396694        1.8944701798       -0.0032245739
 O          2.8336017425       -0.8067182438       -0.2776285872
 C          3.3401441187       -2.1341948867       -0.3654508146
 O          0.7281813558       -2.8069987255       -0.4343196812
 H         -3.2998746041       -3.0314728021       -1.1716040054
 H         -3.0582808868       -1.3406584571       -1.6854740185
 H         -3.7572626695       -1.6970125386       -0.0854640996
 H          0.4640134891        3.2607207503        0.2542486096
 H          4.4203108322       -2.0083431915       -0.3671100686
 H          3.0198076355       -2.6198170649       -1.2864666288
 H          3.0353314100       -2.7303326616        0.4943399159
 H         -0.1161814475       -3.2985995812       -0.4717545814
          23
        -48.70357778
 C         -2.7894887545       -2.4857182726        0.4601395254
 O         -1.4776578145       -2.3820579319       -0.0825802021
 C         -0.7577208215       -1.2287392309       -0.0473322696
 C          0.6364775810       -1.4869505074       -0.0496835537
 C          1.5605674262       -0.4325873739       -0.0193028700
 C          1.0586254561        0.8703284291        0.0223197192
 C         -0.3115411140        1.1616611575        0.0045951867
 C         -1.2178174933        0.0803728848       -0.0493304496
 Cl        -2.9066553611        0.4399425918       -0.1736891393
 C         -0.7466404279        2.5512860141        0.0348490833
 O         -1.8899785713        2.9645184109        0.0484015825
 Cl         2.2440383537        2.1209783107        0.0875020154
 O          2.9065196716       -0.5334529257       -0.0125315342
 C          3.5601446104       -1.7974142082       -0.0582681188
 O          1.0427726686       -2.7646464242       -0.0831145182
 H         -2.9264700150       -3.5492832374        0.6465052558
 H         -3.5396886562       -2.1379108799       -0.2483640754
 H         -2.8765015416       -1.9301523188        1.3926695717
 H          0.0867048122        3.2698767628        0.0491873587
 H          4.6194893916       -1.5507359243       -0.0519214249
 H          3.3088425861       -2.3388941404       -0.9695663091
 H          3.3128421218       -2.4016374203        0.8138593406
 H          0.2604587157       -3.3509022315       -0.0909508501
