  22
 
 C         -3.7958675699       -0.5524740230       -0.0019662619
 C         -2.5279931678        0.2915966231        0.0004894821
 C         -1.2718218897       -0.5761887247       -0.0007218119
 C          0.0001107237        0.2374116405       -0.0002820764
 O          0.0000569191        1.4518750206       -0.0002719998
 C          1.2720675598       -0.5761055755       -0.0000309854
 C          2.5282388125        0.2916938824       -0.0005304365
 C          3.7960619899       -0.5524539847        0.0024805498
 H         -4.6746986029        0.0867015668        0.0015593803
 H         -3.8330170051       -1.1828559067       -0.8871736495
 H         -3.8312995764       -1.1902536671        0.8780271961
 H         -2.5118318164        0.9383414833        0.8801504465
 H         -2.5108591011        0.9420869904       -0.8763758795
 H         -1.2636988603       -1.2234904573       -0.8800313392
 H         -1.2632801306       -1.2252874425        0.8772456337
 H          1.2637196385       -1.2247826024       -0.8783181349
 H          1.2638054134       -1.2238756717        0.8789469522
 H          2.5125374894        0.9385368442       -0.8801024397
 H          2.5106751860        0.9420480173        0.8764356621
 H          4.6749521416        0.0866369518       -0.0005705656
 H          3.8327342300       -1.1829041525        0.8876590723
 H          3.8318631169       -1.1901811657       -0.8775326780
          22
        -26.19594819
 C         -3.7901993729       -0.5670183266        0.0394246833
 C         -2.5284858532        0.2729053938       -0.1108776423
 C         -1.2671783045       -0.5639775355        0.0894584086
 C          0.0000505456        0.2512301271       -0.0001661481
 O         -0.0001055325        1.4658343607        0.0007625983
 C          1.2673143813       -0.5636256099       -0.0906344256
 C          2.5285589816        0.2735236430        0.1089733387
 C          3.7900759053       -0.5674605633       -0.0372268136
 H         -4.6737568529        0.0481330075       -0.1088982783
 H         -3.8035045531       -1.3698122546       -0.6940430490
 H         -3.8405608987       -1.0063466393        1.0329660120
 H         -2.5319308550        1.0873124718        0.6163430840
 H         -2.5003946250        0.7277698967       -1.1033797045
 H         -1.2226253316       -1.3738364610       -0.6402417070
 H         -1.2858667562       -1.0221079529        1.0819140149
 H          1.2855564518       -1.0220514622       -1.0829277105
 H          1.2233532335       -1.3733602522        0.6392203584
 H          2.5333362596        1.0860652249       -0.6203261754
 H          2.4992768305        0.7310617457        1.1001635693
 H          4.6736153926        0.0477489392        0.1103127671
 H          3.8021605814       -1.3680956593        0.6986110606
 H          3.8413922788       -1.0098108583       -1.0293237193
