 xtb: 6.7.1 (edcfbbe)
          04092505203D

 41 40  0     0  0            999 V2000
    4.4518    0.8698   -1.9415 C   0  0  0  0  0  0  0  0  0  0  0  0
    2.9673    0.5743   -1.9750 C   0  0  0  0  0  0  0  0  0  0  0  0
    2.3203    1.0540   -0.7705 O   0  0  0  0  0  0  0  0  0  0  0  0
    2.0194    0.1670    0.4854 P   0  0  0  0  0  0  0  0  0  0  0  0
    0.9707    1.0917    1.8502 S   0  0  0  0  0  0  0  0  0  0  0  0
    3.4882   -0.2344    0.9579 O   0  0  0  0  0  0  0  0  0  0  0  0
    3.6995   -1.0204    2.1470 C   0  0  0  0  0  0  0  0  0  0  0  0
    5.1716   -0.9480    2.4985 C   0  0  0  0  0  0  0  0  0  0  0  0
    1.2353   -1.7037   -0.1832 S   0  0  0  0  0  0  0  0  0  0  0  0
   -0.2762   -1.8167    0.8246 C   0  0  0  0  0  0  0  0  0  0  0  0
   -1.7977   -1.9445   -0.1472 S   0  0  0  0  0  0  0  0  0  0  0  0
   -2.0637    0.0647   -0.7048 P   0  0  0  0  0  0  0  0  0  0  0  0
   -0.6787    1.0062   -1.7187 S   0  0  0  0  0  0  0  0  0  0  0  0
   -2.3749    0.7005    0.7299 O   0  0  0  0  0  0  0  0  0  0  0  0
   -2.2501    2.1074    0.9834 C   0  0  0  0  0  0  0  0  0  0  0  0
   -3.4130    2.8783    0.3952 C   0  0  0  0  0  0  0  0  0  0  0  0
   -3.3940    0.0315   -1.5636 O   0  0  0  0  0  0  0  0  0  0  0  0
   -4.5153   -0.8636   -1.3710 C   0  0  0  0  0  0  0  0  0  0  0  0
   -5.2257   -0.6322   -0.0541 C   0  0  0  0  0  0  0  0  0  0  0  0
    4.9237    0.3334   -1.1227 H   0  0  0  0  0  0  0  0  0  0  0  0
    4.8947    0.5563   -2.8815 H   0  0  0  0  0  0  0  0  0  0  0  0
    4.6148    1.9352   -1.8042 H   0  0  0  0  0  0  0  0  0  0  0  0
    2.7749   -0.4975   -2.0782 H   0  0  0  0  0  0  0  0  0  0  0  0
    2.4606    1.1108   -2.7799 H   0  0  0  0  0  0  0  0  0  0  0  0
    3.0754   -0.6119    2.9488 H   0  0  0  0  0  0  0  0  0  0  0  0
    3.3886   -2.0478    1.9365 H   0  0  0  0  0  0  0  0  0  0  0  0
    5.3517   -1.5306    3.3958 H   0  0  0  0  0  0  0  0  0  0  0  0
    5.7696   -1.3473    1.6845 H   0  0  0  0  0  0  0  0  0  0  0  0
    5.4615    0.0838    2.6762 H   0  0  0  0  0  0  0  0  0  0  0  0
   -0.3267   -0.9441    1.4823 H   0  0  0  0  0  0  0  0  0  0  0  0
   -0.2220   -2.7417    1.3930 H   0  0  0  0  0  0  0  0  0  0  0  0
   -2.2083    2.1833    2.0711 H   0  0  0  0  0  0  0  0  0  0  0  0
   -1.3004    2.4586    0.5652 H   0  0  0  0  0  0  0  0  0  0  0  0
   -3.4315    2.7421   -0.6861 H   0  0  0  0  0  0  0  0  0  0  0  0
   -4.3505    2.5260    0.8166 H   0  0  0  0  0  0  0  0  0  0  0  0
   -3.2923    3.9339    0.6173 H   0  0  0  0  0  0  0  0  0  0  0  0
   -5.1609   -0.6403   -2.2221 H   0  0  0  0  0  0  0  0  0  0  0  0
   -4.1508   -1.8913   -1.4434 H   0  0  0  0  0  0  0  0  0  0  0  0
   -4.5530   -0.8294    0.7777 H   0  0  0  0  0  0  0  0  0  0  0  0
   -5.5781    0.3939    0.0097 H   0  0  0  0  0  0  0  0  0  0  0  0
   -6.0749   -1.3052    0.0108 H   0  0  0  0  0  0  0  0  0  0  0  0
  1  2  1  0  0  0  0
  2  3  1  0  0  0  0
  3  4  2  0  0  0  0
  4  5  2  0  0  0  0
  4  6  2  0  0  0  0
  6  7  1  0  0  0  0
  7  8  1  0  0  0  0
  4  9  1  0  0  0  0
  9 10  1  0  0  0  0
 10 11  1  0  0  0  0
 11 12  1  0  0  0  0
 12 13  2  0  0  0  0
 12 14  1  0  0  0  0
 14 15  1  0  0  0  0
 15 16  1  0  0  0  0
 12 17  2  0  0  0  0
 17 18  1  0  0  0  0
 18 19  1  0  0  0  0
  1 20  1  0  0  0  0
  1 21  1  0  0  0  0
  1 22  1  0  0  0  0
  2 23  1  0  0  0  0
  2 24  1  0  0  0  0
  7 25  1  0  0  0  0
  7 26  1  0  0  0  0
  8 27  1  0  0  0  0
  8 28  1  0  0  0  0
  8 29  1  0  0  0  0
 10 30  1  0  0  0  0
 10 31  1  0  0  0  0
 15 32  1  0  0  0  0
 15 33  1  0  0  0  0
 16 34  1  0  0  0  0
 16 35  1  0  0  0  0
 16 36  1  0  0  0  0
 18 37  1  0  0  0  0
 18 38  1  0  0  0  0
 19 39  1  0  0  0  0
 19 40  1  0  0  0  0
 19 41  1  0  0  0  0
M  END
