 xtb: 6.7.1 (edcfbbe)
          04092507313D

 38 37  0     0  0            999 V2000
    2.9461   -4.5081   -1.2833 C   0  0  0  0  0  0  0  0  0  0  0  0
    3.7815   -3.2866   -1.6323 C   0  0  0  0  0  0  0  0  0  0  0  0
    3.4870   -2.1954   -0.7384 O   0  0  0  0  0  0  0  0  0  0  0  0
    2.4785   -1.3992   -1.0321 C   0  0  0  0  0  0  0  0  0  0  0  0
    1.7909   -1.4910   -2.0239 O   0  0  0  0  0  0  0  0  0  0  0  0
    2.3048   -0.3286    0.0304 C   0  0  0  0  0  0  0  0  0  0  0  0
    0.8970    0.2435   -0.0241 C   0  0  0  0  0  0  0  0  0  0  0  0
    0.6436    0.4866   -1.0643 H   0  0  0  0  0  0  0  0  0  0  0  0
    0.7057    1.5008    0.8014 C   0  0  0  0  0  0  0  0  0  0  0  0
   -0.2552    1.6597    1.5264 O   0  0  0  0  0  0  0  0  0  0  0  0
    1.6682    2.3636    0.6186 O   0  0  0  0  0  0  0  0  0  0  0  0
    1.5483    3.6624    1.2404 C   0  0  0  0  0  0  0  0  0  0  0  0
    0.7566    4.6041    0.3487 C   0  0  0  0  0  0  0  0  0  0  0  0
   -0.3202   -0.9897    0.5515 S   0  0  0  0  0  0  0  0  0  0  0  0
   -2.0764    0.1670    0.2468 P   0  0  0  0  0  0  0  0  0  0  0  0
   -1.9932    1.6388   -1.0405 S   0  0  0  0  0  0  0  0  0  0  0  0
   -3.1014   -0.9873   -0.2131 O   0  0  0  0  0  0  0  0  0  0  0  0
   -2.9788   -1.6202   -1.4881 C   0  0  0  0  0  0  0  0  0  0  0  0
   -2.7401    0.5472    1.6263 O   0  0  0  0  0  0  0  0  0  0  0  0
   -2.9145   -0.4064    2.6923 C   0  0  0  0  0  0  0  0  0  0  0  0
    3.1150   -4.7943   -0.2490 H   0  0  0  0  0  0  0  0  0  0  0  0
    1.8898   -4.2884   -1.4206 H   0  0  0  0  0  0  0  0  0  0  0  0
    3.2232   -5.3311   -1.9336 H   0  0  0  0  0  0  0  0  0  0  0  0
    3.5840   -2.9619   -2.6577 H   0  0  0  0  0  0  0  0  0  0  0  0
    4.8453   -3.4769   -1.4904 H   0  0  0  0  0  0  0  0  0  0  0  0
    3.0214    0.4713   -0.1694 H   0  0  0  0  0  0  0  0  0  0  0  0
    2.5234   -0.7613    1.0063 H   0  0  0  0  0  0  0  0  0  0  0  0
    1.0595    3.5409    2.2105 H   0  0  0  0  0  0  0  0  0  0  0  0
    2.5775    3.9981    1.3653 H   0  0  0  0  0  0  0  0  0  0  0  0
    0.6933    5.5793    0.8195 H   0  0  0  0  0  0  0  0  0  0  0  0
    1.2395    4.7015   -0.6196 H   0  0  0  0  0  0  0  0  0  0  0  0
   -0.2507    4.2195    0.1957 H   0  0  0  0  0  0  0  0  0  0  0  0
   -2.9450   -0.8678   -2.2780 H   0  0  0  0  0  0  0  0  0  0  0  0
   -3.8629   -2.2435   -1.5928 H   0  0  0  0  0  0  0  0  0  0  0  0
   -2.0732   -2.2271   -1.5205 H   0  0  0  0  0  0  0  0  0  0  0  0
   -1.9490   -0.8265    2.9744 H   0  0  0  0  0  0  0  0  0  0  0  0
   -3.5917   -1.1974    2.3751 H   0  0  0  0  0  0  0  0  0  0  0  0
   -3.3387    0.1657    3.5132 H   0  0  0  0  0  0  0  0  0  0  0  0
  1  2  1  0  0  0  0
  2  3  1  0  0  0  0
  3  4  1  0  0  0  0
  4  5  2  0  0  0  0
  4  6  1  0  0  0  0
  6  7  1  0  0  0  0
  7  8  1  0  0  0  0
  7  9  1  0  0  0  0
  9 10  2  0  0  0  0
  9 11  4  0  0  0  0
 11 12  1  0  0  0  0
 12 13  1  0  0  0  0
  7 14  1  0  0  0  0
 14 15  1  0  0  0  0
 15 16  2  0  0  0  0
 15 17  1  0  0  0  0
 17 18  1  0  0  0  0
 15 19  2  0  0  0  0
 19 20  1  0  0  0  0
  1 21  1  0  0  0  0
  1 22  1  0  0  0  0
  1 23  1  0  0  0  0
  2 24  1  0  0  0  0
  2 25  1  0  0  0  0
  6 26  1  0  0  0  0
  6 27  1  0  0  0  0
 12 28  1  0  0  0  0
 12 29  1  0  0  0  0
 13 30  1  0  0  0  0
 13 31  1  0  0  0  0
 13 32  1  0  0  0  0
 18 33  1  0  0  0  0
 18 34  1  0  0  0  0
 18 35  1  0  0  0  0
 20 36  1  0  0  0  0
 20 37  1  0  0  0  0
 20 38  1  0  0  0  0
M  END
