 xtb: 6.7.1 (edcfbbe)
          04092505203D

 41 40  0     0  0            999 V2000
    3.1348   -1.3605   -2.4579 C   0  0  0  0  0  0  0  0  0  0  0  0
    2.2739   -0.1177   -2.5190 C   0  0  0  0  0  0  0  0  0  0  0  0
    2.3407    0.6895   -1.3200 O   0  0  0  0  0  0  0  0  0  0  0  0
    2.1448    0.2070    0.1614 P   0  0  0  0  0  0  0  0  0  0  0  0
    1.6671    1.7155    1.3173 S   0  0  0  0  0  0  0  0  0  0  0  0
    3.5761   -0.4358    0.4514 O   0  0  0  0  0  0  0  0  0  0  0  0
    3.8950   -1.3300    1.5301 C   0  0  0  0  0  0  0  0  0  0  0  0
    3.7201   -0.6962    2.8955 C   0  0  0  0  0  0  0  0  0  0  0  0
    0.8312   -1.4736    0.1981 S   0  0  0  0  0  0  0  0  0  0  0  0
   -0.2846   -0.9604    1.5402 C   0  0  0  0  0  0  0  0  0  0  0  0
   -2.0507   -1.0918    1.1469 S   0  0  0  0  0  0  0  0  0  0  0  0
   -2.3644    0.3478   -0.3851 P   0  0  0  0  0  0  0  0  0  0  0  0
   -0.8214    1.1614   -1.2985 S   0  0  0  0  0  0  0  0  0  0  0  0
   -3.4096    1.3713    0.2264 O   0  0  0  0  0  0  0  0  0  0  0  0
   -3.0361    2.5957    0.8759 C   0  0  0  0  0  0  0  0  0  0  0  0
   -2.2761    2.3614    2.1670 C   0  0  0  0  0  0  0  0  0  0  0  0
   -3.3987   -0.3779   -1.3368 O   0  0  0  0  0  0  0  0  0  0  0  0
   -2.9824   -1.1847   -2.4541 C   0  0  0  0  0  0  0  0  0  0  0  0
   -2.3262   -2.4812   -2.0215 C   0  0  0  0  0  0  0  0  0  0  0  0
    4.1609   -1.0946   -2.2172 H   0  0  0  0  0  0  0  0  0  0  0  0
    2.7575   -2.0481   -1.7023 H   0  0  0  0  0  0  0  0  0  0  0  0
    3.1072   -1.8527   -3.4252 H   0  0  0  0  0  0  0  0  0  0  0  0
    1.2228   -0.3678   -2.6875 H   0  0  0  0  0  0  0  0  0  0  0  0
    2.6100    0.5700   -3.2967 H   0  0  0  0  0  0  0  0  0  0  0  0
    3.2702   -2.2231    1.4334 H   0  0  0  0  0  0  0  0  0  0  0  0
    4.9391   -1.5895    1.3462 H   0  0  0  0  0  0  0  0  0  0  0  0
    2.6740   -0.4519    3.0719 H   0  0  0  0  0  0  0  0  0  0  0  0
    4.0579   -1.3895    3.6590 H   0  0  0  0  0  0  0  0  0  0  0  0
    4.2977    0.2226    2.9620 H   0  0  0  0  0  0  0  0  0  0  0  0
   -0.0241    0.0657    1.8167 H   0  0  0  0  0  0  0  0  0  0  0  0
   -0.1460   -1.6412    2.3765 H   0  0  0  0  0  0  0  0  0  0  0  0
   -2.4362    3.1937    0.1819 H   0  0  0  0  0  0  0  0  0  0  0  0
   -3.9909    3.0912    1.0582 H   0  0  0  0  0  0  0  0  0  0  0  0
   -2.7940    1.6312    2.7840 H   0  0  0  0  0  0  0  0  0  0  0  0
   -1.2679    2.0060    1.9531 H   0  0  0  0  0  0  0  0  0  0  0  0
   -2.1932    3.2973    2.7104 H   0  0  0  0  0  0  0  0  0  0  0  0
   -3.9093   -1.3676   -2.9998 H   0  0  0  0  0  0  0  0  0  0  0  0
   -2.3006   -0.5914   -3.0726 H   0  0  0  0  0  0  0  0  0  0  0  0
   -2.9658   -3.0108   -1.3201 H   0  0  0  0  0  0  0  0  0  0  0  0
   -2.1564   -3.1030   -2.8947 H   0  0  0  0  0  0  0  0  0  0  0  0
   -1.3687   -2.2821   -1.5410 H   0  0  0  0  0  0  0  0  0  0  0  0
  1  2  1  0  0  0  0
  2  3  1  0  0  0  0
  3  4  2  0  0  0  0
  4  5  2  0  0  0  0
  4  6  2  0  0  0  0
  6  7  1  0  0  0  0
  7  8  1  0  0  0  0
  4  9  1  0  0  0  0
  9 10  1  0  0  0  0
 10 11  1  0  0  0  0
 11 12  1  0  0  0  0
 12 13  2  0  0  0  0
 12 14  2  0  0  0  0
 14 15  1  0  0  0  0
 15 16  1  0  0  0  0
 12 17  2  0  0  0  0
 17 18  1  0  0  0  0
 18 19  1  0  0  0  0
  1 20  1  0  0  0  0
  1 21  1  0  0  0  0
  1 22  1  0  0  0  0
  2 23  1  0  0  0  0
  2 24  1  0  0  0  0
  7 25  1  0  0  0  0
  7 26  1  0  0  0  0
  8 27  1  0  0  0  0
  8 28  1  0  0  0  0
  8 29  1  0  0  0  0
 10 30  1  0  0  0  0
 10 31  1  0  0  0  0
 15 32  1  0  0  0  0
 15 33  1  0  0  0  0
 16 34  1  0  0  0  0
 16 35  1  0  0  0  0
 16 36  1  0  0  0  0
 18 37  1  0  0  0  0
 18 38  1  0  0  0  0
 19 39  1  0  0  0  0
 19 40  1  0  0  0  0
 19 41  1  0  0  0  0
M  END
