20
 xtb: 6.7.1 (edcfbbe)
C            0.89385690592126        1.37432020935035       -0.63031286807623
C            1.60938537949678        0.15535305324320       -0.07200677271551
H            2.58216143661981        0.05308626606143       -0.57354660354530
C            0.78663087555329       -1.11167575640387       -0.31070467448640
H            1.22047004868618       -1.93952827302600        0.26726516839215
C           -0.67403448247509       -0.91242951052674        0.12930681577659
H           -1.27438403113498       -1.75424729476971       -0.23553829195616
C           -1.25124323693907        0.38088030237493       -0.45289083805817
H           -1.31623214104939        0.32276222656504       -1.54825681908064
O           -0.42979780514522        1.50068485917552       -0.08568735390168
O           -2.54220838895981        0.62925146889231        0.03659600804456
O           -0.80064007700405       -0.90410409883904        1.55576605957523
O            0.85336456138142       -1.37717878665797       -1.71453306691611
O            1.78230105014388        0.25110562771713        1.35366292195805
H            0.85071342183062        1.30579683410560       -1.72718469883277
H            1.42852917314612        2.28971383634860       -0.35967068573763
H           -2.53058684403947        0.39223097030483        0.97881748495724
H           -0.10051407394072       -0.31794415659859        1.89157897686141
H            0.37354649935251       -2.19934022620901       -1.87977163065294
H            2.14625230180409        1.12511529262888        1.54978529064652
