41
 xtb: 6.7.1 (edcfbbe)
C            3.18186360192592        1.69455827430531        2.79268385524541
C            1.82611770536239        1.08610972038366        2.52983247895449
O            1.58311059311301        0.88122823177157        1.09449714200105
P            2.33707915703708       -0.26702510341855        0.26349305603680
S            2.68264370694796       -1.94272016947578        1.19480674720384
O            3.60823584387057        0.54203461775569       -0.30613861915224
C            4.86220934510694       -0.11227708583757       -0.70536529876635
C            4.76222560020637       -0.74600749334973       -2.07040809866461
S            1.12042431651423       -0.38485329031927       -1.46648667415580
C           -0.11577288137473       -1.63206604776332       -0.93051278988693
S           -1.30824644156960       -1.15220583272529        0.37828065845865
P           -2.53088904127758        0.23344388057282       -0.67540895429918
S           -3.00874409972299       -0.27491786503698       -2.48975499672704
O           -1.78899230597932        1.65364939039980       -0.65242569698497
C           -1.40746051970704        2.32341460455588        0.60545466697263
C           -2.35321074631421        3.46543574684223        0.88070565746207
O           -3.70179346118837        0.44148555538985        0.40639689965079
C           -4.99106524794874       -0.26550663210207        0.35523606665730
C           -4.89447803257968       -1.66492612202609        0.90782574329416
H            3.30857413745274        2.62450264902907        2.23128629848724
H            3.25966316787887        1.92233049152234        3.86062450882995
H            3.99170696490522        1.00628224468395        2.53235487252657
H            1.01781597464447        1.75693590233218        2.82943366135766
H            1.70028317369855        0.12577275810559        3.03923013301197
H            5.58786040065211        0.70347155656364       -0.69394713184220
H            5.13011016346609       -0.83952082167289        0.06680041241979
H            4.07413648683308       -1.59614176498433       -2.07205043251865
H            4.43395665270599       -0.01748022258922       -2.81780440831282
H            5.75455163471451       -1.11003704508089       -2.35679938643909
H            0.40955162254995       -2.50893338977450       -0.54032596744370
H           -0.66364077634035       -1.91103147358566       -1.83574703376912
H           -1.39479267532854        1.59321467390003        1.42040650336882
H           -0.38798837807161        2.67468929122847        0.43411286101552
H           -3.37149994511753        3.10738097940608        1.05327321326453
H           -2.01405291916068        3.99265528771466        1.77848540324081
H           -2.35853995066571        4.17445942836930        0.04804460283913
H           -5.64684589826100        0.36171811891541        0.96205300320730
H           -5.34468144407199       -0.25565920339811       -0.67987648094375
H           -4.28490050701668       -2.31064077944248        0.26985032580400
H           -4.47573372206000       -1.65998248654348        1.91850468662780
H           -5.90376959514226       -2.08717643552865        0.95522061254770
