 xtb: 6.7.1 (edcfbbe)
          04092505203D

 41 40  0     0  0            999 V2000
    3.5250    1.9672   -0.6578 C   0  0  0  0  0  0  0  0  0  0  0  0
    2.9155    2.2624    0.6960 C   0  0  0  0  0  0  0  0  0  0  0  0
    1.6900    1.5236    0.9271 O   0  0  0  0  0  0  0  0  0  0  0  0
    1.6023   -0.0493    1.0500 P   0  0  0  0  0  0  0  0  0  0  0  0
    0.1607   -0.6570    2.2277 S   0  0  0  0  0  0  0  0  0  0  0  0
    3.0616   -0.3879    1.6019 O   0  0  0  0  0  0  0  0  0  0  0  0
    3.3719   -1.6172    2.2753 C   0  0  0  0  0  0  0  0  0  0  0  0
    3.2518   -2.8253    1.3684 C   0  0  0  0  0  0  0  0  0  0  0  0
    1.6042   -0.8297   -0.9414 S   0  0  0  0  0  0  0  0  0  0  0  0
    0.1186   -1.8622   -0.9153 C   0  0  0  0  0  0  0  0  0  0  0  0
   -1.1878   -1.3192   -2.0702 S   0  0  0  0  0  0  0  0  0  0  0  0
   -2.0537    0.2268   -0.9557 P   0  0  0  0  0  0  0  0  0  0  0  0
   -3.5479    1.2143   -1.7478 S   0  0  0  0  0  0  0  0  0  0  0  0
   -0.8375    1.1666   -0.4810 O   0  0  0  0  0  0  0  0  0  0  0  0
   -0.5383    2.3710   -1.2114 C   0  0  0  0  0  0  0  0  0  0  0  0
   -0.0308    2.0773   -2.6092 C   0  0  0  0  0  0  0  0  0  0  0  0
   -2.4038   -0.5832    0.3586 O   0  0  0  0  0  0  0  0  0  0  0  0
   -3.1692    0.0103    1.4294 C   0  0  0  0  0  0  0  0  0  0  0  0
   -3.6494   -1.1108    2.3256 C   0  0  0  0  0  0  0  0  0  0  0  0
    3.7932    0.9143   -0.7273 H   0  0  0  0  0  0  0  0  0  0  0  0
    2.8259    2.2046   -1.4546 H   0  0  0  0  0  0  0  0  0  0  0  0
    4.4204    2.5688   -0.7798 H   0  0  0  0  0  0  0  0  0  0  0  0
    2.6015    3.3042    0.7800 H   0  0  0  0  0  0  0  0  0  0  0  0
    3.6155    2.0230    1.4985 H   0  0  0  0  0  0  0  0  0  0  0  0
    4.3980   -1.4732    2.6166 H   0  0  0  0  0  0  0  0  0  0  0  0
    2.7045   -1.7174    3.1372 H   0  0  0  0  0  0  0  0  0  0  0  0
    2.2067   -2.9988    1.1158 H   0  0  0  0  0  0  0  0  0  0  0  0
    3.8181   -2.6724    0.4533 H   0  0  0  0  0  0  0  0  0  0  0  0
    3.6342   -3.6987    1.8868 H   0  0  0  0  0  0  0  0  0  0  0  0
   -0.2839   -1.8829    0.1001 H   0  0  0  0  0  0  0  0  0  0  0  0
    0.3942   -2.8550   -1.2603 H   0  0  0  0  0  0  0  0  0  0  0  0
   -1.4494    2.9760   -1.2569 H   0  0  0  0  0  0  0  0  0  0  0  0
    0.2092    2.8714   -0.5956 H   0  0  0  0  0  0  0  0  0  0  0  0
    0.8225    1.4034   -2.5786 H   0  0  0  0  0  0  0  0  0  0  0  0
   -0.8222    1.6096   -3.1955 H   0  0  0  0  0  0  0  0  0  0  0  0
    0.2569    3.0077   -3.0885 H   0  0  0  0  0  0  0  0  0  0  0  0
   -2.5164    0.6993    1.9720 H   0  0  0  0  0  0  0  0  0  0  0  0
   -4.0018    0.5695    0.9893 H   0  0  0  0  0  0  0  0  0  0  0  0
   -2.7926   -1.6323    2.7448 H   0  0  0  0  0  0  0  0  0  0  0  0
   -4.2449   -0.6923    3.1301 H   0  0  0  0  0  0  0  0  0  0  0  0
   -4.2512   -1.8125    1.7552 H   0  0  0  0  0  0  0  0  0  0  0  0
  1  2  1  0  0  0  0
  2  3  1  0  0  0  0
  3  4  2  0  0  0  0
  4  5  2  0  0  0  0
  4  6  1  0  0  0  0
  6  7  1  0  0  0  0
  7  8  1  0  0  0  0
  4  9  1  0  0  0  0
  9 10  1  0  0  0  0
 10 11  1  0  0  0  0
 11 12  1  0  0  0  0
 12 13  2  0  0  0  0
 12 14  1  0  0  0  0
 14 15  1  0  0  0  0
 15 16  1  0  0  0  0
 12 17  2  0  0  0  0
 17 18  1  0  0  0  0
 18 19  1  0  0  0  0
  1 20  1  0  0  0  0
  1 21  1  0  0  0  0
  1 22  1  0  0  0  0
  2 23  1  0  0  0  0
  2 24  1  0  0  0  0
  7 25  1  0  0  0  0
  7 26  1  0  0  0  0
  8 27  1  0  0  0  0
  8 28  1  0  0  0  0
  8 29  1  0  0  0  0
 10 30  1  0  0  0  0
 10 31  1  0  0  0  0
 15 32  1  0  0  0  0
 15 33  1  0  0  0  0
 16 34  1  0  0  0  0
 16 35  1  0  0  0  0
 16 36  1  0  0  0  0
 18 37  1  0  0  0  0
 18 38  1  0  0  0  0
 19 39  1  0  0  0  0
 19 40  1  0  0  0  0
 19 41  1  0  0  0  0
M  END
