 xtb: 6.7.1 (edcfbbe)
          04092505213D

 41 40  0     0  0            999 V2000
    3.1624    1.3588   -2.3724 C   0  0  0  0  0  0  0  0  0  0  0  0
    2.0248    0.3856   -2.1546 C   0  0  0  0  0  0  0  0  0  0  0  0
    1.4068    0.5295   -0.8572 O   0  0  0  0  0  0  0  0  0  0  0  0
    2.1916    0.3664    0.5125 P   0  0  0  0  0  0  0  0  0  0  0  0
    3.3379    1.8326    1.1237 S   0  0  0  0  0  0  0  0  0  0  0  0
    2.9449   -1.0237    0.2724 O   0  0  0  0  0  0  0  0  0  0  0  0
    4.0608   -1.4222    1.0859 C   0  0  0  0  0  0  0  0  0  0  0  0
    3.6196   -1.8815    2.4609 C   0  0  0  0  0  0  0  0  0  0  0  0
    0.5913   -0.0105    1.8112 S   0  0  0  0  0  0  0  0  0  0  0  0
   -0.1944   -1.4687    1.0159 C   0  0  0  0  0  0  0  0  0  0  0  0
   -1.9867   -1.2982    0.9509 S   0  0  0  0  0  0  0  0  0  0  0  0
   -2.0612   -0.0674   -0.7867 P   0  0  0  0  0  0  0  0  0  0  0  0
   -1.1938   -0.8666   -2.3495 S   0  0  0  0  0  0  0  0  0  0  0  0
   -1.4187    1.3225   -0.3980 O   0  0  0  0  0  0  0  0  0  0  0  0
   -2.0797    2.4028    0.3045 C   0  0  0  0  0  0  0  0  0  0  0  0
   -2.5949    1.9999    1.6700 C   0  0  0  0  0  0  0  0  0  0  0  0
   -3.5960    0.2947   -0.9663 O   0  0  0  0  0  0  0  0  0  0  0  0
   -4.5088   -0.5511   -1.6898 C   0  0  0  0  0  0  0  0  0  0  0  0
   -4.7430   -1.8739   -0.9907 C   0  0  0  0  0  0  0  0  0  0  0  0
    2.8264    2.3785   -2.1982 H   0  0  0  0  0  0  0  0  0  0  0  0
    3.9816    1.1434   -1.6876 H   0  0  0  0  0  0  0  0  0  0  0  0
    3.5184    1.2665   -3.3936 H   0  0  0  0  0  0  0  0  0  0  0  0
    2.3638   -0.6478   -2.2587 H   0  0  0  0  0  0  0  0  0  0  0  0
    1.2010    0.5649   -2.8484 H   0  0  0  0  0  0  0  0  0  0  0  0
    4.5285   -2.2289    0.5197 H   0  0  0  0  0  0  0  0  0  0  0  0
    4.7488   -0.5743    1.1678 H   0  0  0  0  0  0  0  0  0  0  0  0
    3.1673   -1.0513    3.0024 H   0  0  0  0  0  0  0  0  0  0  0  0
    2.8962   -2.6885    2.3791 H   0  0  0  0  0  0  0  0  0  0  0  0
    4.4848   -2.2314    3.0146 H   0  0  0  0  0  0  0  0  0  0  0  0
    0.0132   -2.3421    1.6273 H   0  0  0  0  0  0  0  0  0  0  0  0
    0.1969   -1.5778    0.0041 H   0  0  0  0  0  0  0  0  0  0  0  0
   -1.2983    3.1616    0.3799 H   0  0  0  0  0  0  0  0  0  0  0  0
   -2.8922    2.7662   -0.3278 H   0  0  0  0  0  0  0  0  0  0  0  0
   -1.7897    1.5940    2.2790 H   0  0  0  0  0  0  0  0  0  0  0  0
   -3.0007    2.8787    2.1616 H   0  0  0  0  0  0  0  0  0  0  0  0
   -3.3802    1.2532    1.5745 H   0  0  0  0  0  0  0  0  0  0  0  0
   -5.4216    0.0437   -1.7457 H   0  0  0  0  0  0  0  0  0  0  0  0
   -4.1070   -0.7128   -2.6948 H   0  0  0  0  0  0  0  0  0  0  0  0
   -5.0308   -1.7115    0.0447 H   0  0  0  0  0  0  0  0  0  0  0  0
   -5.5323   -2.4137   -1.5040 H   0  0  0  0  0  0  0  0  0  0  0  0
   -3.8346   -2.4734   -1.0119 H   0  0  0  0  0  0  0  0  0  0  0  0
  1  2  1  0  0  0  0
  2  3  1  0  0  0  0
  3  4  2  0  0  0  0
  4  5  2  0  0  0  0
  4  6  2  0  0  0  0
  6  7  1  0  0  0  0
  7  8  1  0  0  0  0
  4  9  1  0  0  0  0
  9 10  1  0  0  0  0
 10 11  1  0  0  0  0
 11 12  1  0  0  0  0
 12 13  2  0  0  0  0
 12 14  2  0  0  0  0
 14 15  1  0  0  0  0
 15 16  1  0  0  0  0
 12 17  2  0  0  0  0
 17 18  1  0  0  0  0
 18 19  1  0  0  0  0
  1 20  1  0  0  0  0
  1 21  1  0  0  0  0
  1 22  1  0  0  0  0
  2 23  1  0  0  0  0
  2 24  1  0  0  0  0
  7 25  1  0  0  0  0
  7 26  1  0  0  0  0
  8 27  1  0  0  0  0
  8 28  1  0  0  0  0
  8 29  1  0  0  0  0
 10 30  1  0  0  0  0
 10 31  1  0  0  0  0
 15 32  1  0  0  0  0
 15 33  1  0  0  0  0
 16 34  1  0  0  0  0
 16 35  1  0  0  0  0
 16 36  1  0  0  0  0
 18 37  1  0  0  0  0
 18 38  1  0  0  0  0
 19 39  1  0  0  0  0
 19 40  1  0  0  0  0
 19 41  1  0  0  0  0
M  END
