 xtb: 6.7.1 (edcfbbe)
          04092505213D

 41 40  0     0  0            999 V2000
    2.9383    2.3099   -1.2769 C   0  0  0  0  0  0  0  0  0  0  0  0
    3.6089    1.5823   -0.1291 C   0  0  0  0  0  0  0  0  0  0  0  0
    3.1681    0.2104   -0.0675 O   0  0  0  0  0  0  0  0  0  0  0  0
    2.1683   -0.3583    1.0463 P   0  0  0  0  0  0  0  0  0  0  0  0
    1.3672    0.9733    2.2270 S   0  0  0  0  0  0  0  0  0  0  0  0
    3.0157   -1.3767    1.9132 O   0  0  0  0  0  0  0  0  0  0  0  0
    3.7981   -2.4605    1.3540 C   0  0  0  0  0  0  0  0  0  0  0  0
    3.1119   -3.7883    1.6053 C   0  0  0  0  0  0  0  0  0  0  0  0
    0.9618   -1.6408   -0.1343 S   0  0  0  0  0  0  0  0  0  0  0  0
    0.4439   -0.4790   -1.4322 C   0  0  0  0  0  0  0  0  0  0  0  0
   -0.4681    0.9642   -0.8324 S   0  0  0  0  0  0  0  0  0  0  0  0
   -2.4765    0.2691   -1.0397 P   0  0  0  0  0  0  0  0  0  0  0  0
   -2.7104   -1.5457   -1.7302 S   0  0  0  0  0  0  0  0  0  0  0  0
   -3.1506    1.3304   -1.9925 O   0  0  0  0  0  0  0  0  0  0  0  0
   -2.8782    2.7510   -2.0450 C   0  0  0  0  0  0  0  0  0  0  0  0
   -3.0038    3.4241   -0.6957 C   0  0  0  0  0  0  0  0  0  0  0  0
   -3.2023    0.5595    0.3489 O   0  0  0  0  0  0  0  0  0  0  0  0
   -3.3462   -0.4191    1.3870 C   0  0  0  0  0  0  0  0  0  0  0  0
   -2.0196   -0.8010    2.0099 C   0  0  0  0  0  0  0  0  0  0  0  0
    1.8630    2.3570   -1.1125 H   0  0  0  0  0  0  0  0  0  0  0  0
    3.3302    3.3204   -1.3298 H   0  0  0  0  0  0  0  0  0  0  0  0
    3.1374    1.8018   -2.2167 H   0  0  0  0  0  0  0  0  0  0  0  0
    3.3829    2.0709    0.8237 H   0  0  0  0  0  0  0  0  0  0  0  0
    4.6901    1.5275   -0.2679 H   0  0  0  0  0  0  0  0  0  0  0  0
    3.9464   -2.2828    0.2864 H   0  0  0  0  0  0  0  0  0  0  0  0
    4.7565   -2.4074    1.8733 H   0  0  0  0  0  0  0  0  0  0  0  0
    2.1574   -3.8285    1.0845 H   0  0  0  0  0  0  0  0  0  0  0  0
    3.7473   -4.5914    1.2458 H   0  0  0  0  0  0  0  0  0  0  0  0
    2.9346   -3.9182    2.6691 H   0  0  0  0  0  0  0  0  0  0  0  0
   -0.1983   -1.0584   -2.0977 H   0  0  0  0  0  0  0  0  0  0  0  0
    1.3259   -0.1086   -1.9471 H   0  0  0  0  0  0  0  0  0  0  0  0
   -1.8751    2.8895   -2.4565 H   0  0  0  0  0  0  0  0  0  0  0  0
   -3.6233    3.1198   -2.7514 H   0  0  0  0  0  0  0  0  0  0  0  0
   -3.9824    3.2288   -0.2651 H   0  0  0  0  0  0  0  0  0  0  0  0
   -2.2400    3.0507   -0.0146 H   0  0  0  0  0  0  0  0  0  0  0  0
   -2.8709    4.4946   -0.8182 H   0  0  0  0  0  0  0  0  0  0  0  0
   -4.0036    0.0641    2.1113 H   0  0  0  0  0  0  0  0  0  0  0  0
   -3.8383   -1.3023    0.9670 H   0  0  0  0  0  0  0  0  0  0  0  0
   -1.4671    0.0850    2.3181 H   0  0  0  0  0  0  0  0  0  0  0  0
   -2.1936   -1.4284    2.8781 H   0  0  0  0  0  0  0  0  0  0  0  0
   -1.4199   -1.3623    1.2936 H   0  0  0  0  0  0  0  0  0  0  0  0
  1  2  1  0  0  0  0
  2  3  1  0  0  0  0
  3  4  1  0  0  0  0
  4  5  2  0  0  0  0
  4  6  2  0  0  0  0
  6  7  1  0  0  0  0
  7  8  1  0  0  0  0
  4  9  1  0  0  0  0
  9 10  1  0  0  0  0
 10 11  1  0  0  0  0
 11 12  1  0  0  0  0
 12 13  2  0  0  0  0
 12 14  2  0  0  0  0
 14 15  1  0  0  0  0
 15 16  1  0  0  0  0
 12 17  2  0  0  0  0
 17 18  1  0  0  0  0
 18 19  1  0  0  0  0
  1 20  1  0  0  0  0
  1 21  1  0  0  0  0
  1 22  1  0  0  0  0
  2 23  1  0  0  0  0
  2 24  1  0  0  0  0
  7 25  1  0  0  0  0
  7 26  1  0  0  0  0
  8 27  1  0  0  0  0
  8 28  1  0  0  0  0
  8 29  1  0  0  0  0
 10 30  1  0  0  0  0
 10 31  1  0  0  0  0
 15 32  1  0  0  0  0
 15 33  1  0  0  0  0
 16 34  1  0  0  0  0
 16 35  1  0  0  0  0
 16 36  1  0  0  0  0
 18 37  1  0  0  0  0
 18 38  1  0  0  0  0
 19 39  1  0  0  0  0
 19 40  1  0  0  0  0
 19 41  1  0  0  0  0
M  END
