 xtb: 6.7.1 (edcfbbe)
          04092505213D

 41 40  0     0  0            999 V2000
    3.6351    0.0607   -2.8584 C   0  0  0  0  0  0  0  0  0  0  0  0
    4.5414   -0.4614   -1.7606 C   0  0  0  0  0  0  0  0  0  0  0  0
    3.8238   -1.2507   -0.7989 O   0  0  0  0  0  0  0  0  0  0  0  0
    2.7994   -0.6036    0.2210 P   0  0  0  0  0  0  0  0  0  0  0  0
    3.3144    1.1894    0.8454 S   0  0  0  0  0  0  0  0  0  0  0  0
    2.8598   -1.7948    1.2582 O   0  0  0  0  0  0  0  0  0  0  0  0
    1.8451   -2.1073    2.2302 C   0  0  0  0  0  0  0  0  0  0  0  0
    1.4845   -0.9263    3.1088 C   0  0  0  0  0  0  0  0  0  0  0  0
    0.8815   -0.7565   -0.7174 S   0  0  0  0  0  0  0  0  0  0  0  0
    0.2475    0.9104   -0.3791 C   0  0  0  0  0  0  0  0  0  0  0  0
   -1.0716    0.9263    0.8489 S   0  0  0  0  0  0  0  0  0  0  0  0
   -2.6664    0.4591   -0.4937 P   0  0  0  0  0  0  0  0  0  0  0  0
   -2.4901    1.2707   -2.2680 S   0  0  0  0  0  0  0  0  0  0  0  0
   -3.9633    0.7709    0.3684 O   0  0  0  0  0  0  0  0  0  0  0  0
   -4.1908    1.9776    1.1212 C   0  0  0  0  0  0  0  0  0  0  0  0
   -4.0701    3.2265    0.2739 C   0  0  0  0  0  0  0  0  0  0  0  0
   -2.7742   -1.1027   -0.6736 O   0  0  0  0  0  0  0  0  0  0  0  0
   -3.1492   -2.0675    0.3399 C   0  0  0  0  0  0  0  0  0  0  0  0
   -1.9444   -2.5365    1.1310 C   0  0  0  0  0  0  0  0  0  0  0  0
    4.2364    0.5368   -3.6263 H   0  0  0  0  0  0  0  0  0  0  0  0
    3.0673   -0.7549   -3.2996 H   0  0  0  0  0  0  0  0  0  0  0  0
    2.9401    0.7952   -2.4526 H   0  0  0  0  0  0  0  0  0  0  0  0
    5.0313    0.3682   -1.2397 H   0  0  0  0  0  0  0  0  0  0  0  0
    5.2941   -1.1461   -2.1538 H   0  0  0  0  0  0  0  0  0  0  0  0
    0.9650   -2.4816    1.7005 H   0  0  0  0  0  0  0  0  0  0  0  0
    2.2928   -2.9138    2.8136 H   0  0  0  0  0  0  0  0  0  0  0  0
    2.3788   -0.5058    3.5627 H   0  0  0  0  0  0  0  0  0  0  0  0
    0.9969   -0.1459    2.5240 H   0  0  0  0  0  0  0  0  0  0  0  0
    0.8063   -1.2530    3.8906 H   0  0  0  0  0  0  0  0  0  0  0  0
   -0.1500    1.3157   -1.3118 H   0  0  0  0  0  0  0  0  0  0  0  0
    1.0642    1.5253    0.0093 H   0  0  0  0  0  0  0  0  0  0  0  0
   -5.2052    1.8525    1.5042 H   0  0  0  0  0  0  0  0  0  0  0  0
   -3.4789    2.0022    1.9506 H   0  0  0  0  0  0  0  0  0  0  0  0
   -4.7305    3.1663   -0.5881 H   0  0  0  0  0  0  0  0  0  0  0  0
   -4.3343    4.0941    0.8699 H   0  0  0  0  0  0  0  0  0  0  0  0
   -3.0483    3.3414   -0.0853 H   0  0  0  0  0  0  0  0  0  0  0  0
   -3.9078   -1.6250    0.9873 H   0  0  0  0  0  0  0  0  0  0  0  0
   -3.5860   -2.8846   -0.2368 H   0  0  0  0  0  0  0  0  0  0  0  0
   -2.2387   -3.3666    1.7654 H   0  0  0  0  0  0  0  0  0  0  0  0
   -1.1653   -2.8659    0.4469 H   0  0  0  0  0  0  0  0  0  0  0  0
   -1.5576   -1.7337    1.7539 H   0  0  0  0  0  0  0  0  0  0  0  0
  1  2  1  0  0  0  0
  2  3  1  0  0  0  0
  3  4  2  0  0  0  0
  4  5  2  0  0  0  0
  4  6  2  0  0  0  0
  6  7  1  0  0  0  0
  7  8  1  0  0  0  0
  4  9  1  0  0  0  0
  9 10  1  0  0  0  0
 10 11  1  0  0  0  0
 11 12  1  0  0  0  0
 12 13  2  0  0  0  0
 12 14  2  0  0  0  0
 14 15  1  0  0  0  0
 15 16  1  0  0  0  0
 12 17  2  0  0  0  0
 17 18  1  0  0  0  0
 18 19  1  0  0  0  0
  1 20  1  0  0  0  0
  1 21  1  0  0  0  0
  1 22  1  0  0  0  0
  2 23  1  0  0  0  0
  2 24  1  0  0  0  0
  7 25  1  0  0  0  0
  7 26  1  0  0  0  0
  8 27  1  0  0  0  0
  8 28  1  0  0  0  0
  8 29  1  0  0  0  0
 10 30  1  0  0  0  0
 10 31  1  0  0  0  0
 15 32  1  0  0  0  0
 15 33  1  0  0  0  0
 16 34  1  0  0  0  0
 16 35  1  0  0  0  0
 16 36  1  0  0  0  0
 18 37  1  0  0  0  0
 18 38  1  0  0  0  0
 19 39  1  0  0  0  0
 19 40  1  0  0  0  0
 19 41  1  0  0  0  0
M  END
