20
 xtb: 6.7.1 (edcfbbe)
C           -1.18435040736454        1.29214926109913       -1.00329271757665
C           -0.99726523584736        0.16741327052467        0.01592408107388
C           -1.73561790372498       -1.09662622039666       -0.45900817401911
C           -1.54516166093006        0.60471493636196        1.38438443150609
C            0.46234475344964       -0.22152381625582        0.21405260361976
O            0.83433130513615       -1.06209379742441        1.01898830447451
O            1.31410561352745        0.43877468749529       -0.58655835148810
C            2.71663868974010        0.09010935965801       -0.44529018320653
H           -0.81958065798285        1.00494676889971       -1.99333135273938
H           -2.25233358395517        1.51724259595359       -1.08738068657254
H           -0.66881358072208        2.20580006602881       -0.69359471192418
H           -1.63708558535924       -1.90728539920919        0.26819333620448
H           -1.34673076041562       -1.44058564291982       -1.42312928486061
H           -2.79861220934415       -0.86542931105864       -0.57960182795351
H           -1.45766760794622       -0.19853952050477        2.12086071279296
H           -1.00932051612626        1.48318934728043        1.75854531658363
H           -2.60294016553944        0.86532999498353        1.28021354918140
H            2.86526483610819       -0.96867078252553       -0.67009784826389
H            3.05914104914129        0.31156601822366        0.56832001857197
H            3.24126990430952        0.71197519070219       -1.16981383893692
