 xtb: 6.7.1 (edcfbbe)
          04032519433D

  8  7  0     0  0            999 V2000
    1.2331    0.5706   -0.0000 C   0  0  0  0  0  0  0  0  0  0  0  0
    0.2910   -0.6119   -0.0000 C   0  0  0  0  0  0  0  0  0  0  0  0
   -1.5628    0.0270    0.0000 Br  0  0  0  0  0  0  0  0  0  0  0  0
    2.9193   -0.0444    0.0000 Cl  0  0  0  0  0  0  0  0  0  0  0  0
    1.1143    1.1829   -0.8937 H   0  0  0  0  0  0  0  0  0  0  0  0
    1.1144    1.1829    0.8936 H   0  0  0  0  0  0  0  0  0  0  0  0
    0.4069   -1.2233    0.8933 H   0  0  0  0  0  0  0  0  0  0  0  0
    0.4069   -1.2233   -0.8934 H   0  0  0  0  0  0  0  0  0  0  0  0
  1  2  1  0  0  0  0
  2  3  1  0  0  0  0
  1  4  1  0  0  0  0
  1  5  1  0  0  0  0
  1  6  1  0  0  0  0
  2  7  1  0  0  0  0
  2  8  1  0  0  0  0
M  END
