 xtb: 6.7.1 (edcfbbe)
          04092509473D

 38 37  0     0  0            999 V2000
    5.4704   -1.7652   -1.3167 C   0  0  0  0  0  0  0  0  0  0  0  0
    4.7522   -1.3081   -0.0569 C   0  0  0  0  0  0  0  0  0  0  0  0
    3.3427   -1.6028   -0.1286 O   0  0  0  0  0  0  0  0  0  0  0  0
    2.5493   -0.7386   -0.7268 C   0  0  0  0  0  0  0  0  0  0  0  0
    2.9141    0.3139   -1.2091 O   0  0  0  0  0  0  0  0  0  0  0  0
    1.1110   -1.2123   -0.7273 C   0  0  0  0  0  0  0  0  0  0  0  0
    0.2327   -0.1540   -1.3721 C   0  0  0  0  0  0  0  0  0  0  0  0
    0.4950   -0.0134   -2.4247 H   0  0  0  0  0  0  0  0  0  0  0  0
    0.3171    1.2085   -0.7087 C   0  0  0  0  0  0  0  0  0  0  0  0
    0.0347    2.2311   -1.2946 O   0  0  0  0  0  0  0  0  0  0  0  0
    0.6723    1.1332    0.5550 O   0  0  0  0  0  0  0  0  0  0  0  0
    0.8660    2.3534    1.2987 C   0  0  0  0  0  0  0  0  0  0  0  0
    2.3487    2.5727    1.5487 C   0  0  0  0  0  0  0  0  0  0  0  0
   -1.5284   -0.6359   -1.4357 S   0  0  0  0  0  0  0  0  0  0  0  0
   -2.1929   -0.2682    0.5565 P   0  0  0  0  0  0  0  0  0  0  0  0
   -1.2499   -1.1112    2.0452 S   0  0  0  0  0  0  0  0  0  0  0  0
   -2.3149    1.2993    0.7475 O   0  0  0  0  0  0  0  0  0  0  0  0
   -3.0761    2.1527   -0.1311 C   0  0  0  0  0  0  0  0  0  0  0  0
   -3.7294   -0.6804    0.4130 O   0  0  0  0  0  0  0  0  0  0  0  0
   -4.1527   -2.0500    0.3605 C   0  0  0  0  0  0  0  0  0  0  0  0
    5.3021   -2.8260   -1.4801 H   0  0  0  0  0  0  0  0  0  0  0  0
    5.1051   -1.2101   -2.1779 H   0  0  0  0  0  0  0  0  0  0  0  0
    6.5346   -1.5838   -1.2078 H   0  0  0  0  0  0  0  0  0  0  0  0
    4.8772   -0.2316    0.0907 H   0  0  0  0  0  0  0  0  0  0  0  0
    5.0989   -1.8551    0.8198 H   0  0  0  0  0  0  0  0  0  0  0  0
    0.8137   -1.4063    0.3066 H   0  0  0  0  0  0  0  0  0  0  0  0
    1.0410   -2.1505   -1.2793 H   0  0  0  0  0  0  0  0  0  0  0  0
    0.4331    3.1800    0.7285 H   0  0  0  0  0  0  0  0  0  0  0  0
    0.3188    2.2118    2.2327 H   0  0  0  0  0  0  0  0  0  0  0  0
    2.8753    2.6781    0.6023 H   0  0  0  0  0  0  0  0  0  0  0  0
    2.4824    3.4753    2.1359 H   0  0  0  0  0  0  0  0  0  0  0  0
    2.7640    1.7270    2.0901 H   0  0  0  0  0  0  0  0  0  0  0  0
   -2.4525    2.4390   -0.9788 H   0  0  0  0  0  0  0  0  0  0  0  0
   -3.3291    3.0260    0.4646 H   0  0  0  0  0  0  0  0  0  0  0  0
   -3.9758    1.6451   -0.4709 H   0  0  0  0  0  0  0  0  0  0  0  0
   -5.2357   -2.0223    0.4570 H   0  0  0  0  0  0  0  0  0  0  0  0
   -3.7106   -2.6103    1.1851 H   0  0  0  0  0  0  0  0  0  0  0  0
   -3.8641   -2.4950   -0.5910 H   0  0  0  0  0  0  0  0  0  0  0  0
  1  2  1  0  0  0  0
  2  3  1  0  0  0  0
  3  4  1  0  0  0  0
  4  5  2  0  0  0  0
  4  6  1  0  0  0  0
  6  7  1  0  0  0  0
  7  8  1  0  0  0  0
  7  9  1  0  0  0  0
  9 10  2  0  0  0  0
  9 11  1  0  0  0  0
 11 12  1  0  0  0  0
 12 13  1  0  0  0  0
  7 14  1  0  0  0  0
 14 15  1  0  0  0  0
 15 16  2  0  0  0  0
 15 17  2  0  0  0  0
 17 18  1  0  0  0  0
 15 19  2  0  0  0  0
 19 20  1  0  0  0  0
  1 21  1  0  0  0  0
  1 22  1  0  0  0  0
  1 23  1  0  0  0  0
  2 24  1  0  0  0  0
  2 25  1  0  0  0  0
  6 26  1  0  0  0  0
  6 27  1  0  0  0  0
 12 28  1  0  0  0  0
 12 29  1  0  0  0  0
 13 30  1  0  0  0  0
 13 31  1  0  0  0  0
 13 32  1  0  0  0  0
 18 33  1  0  0  0  0
 18 34  1  0  0  0  0
 18 35  1  0  0  0  0
 20 36  1  0  0  0  0
 20 37  1  0  0  0  0
 20 38  1  0  0  0  0
M  END
