 xtb: 6.7.1 (edcfbbe)
          04092505213D

 41 40  0     0  0            999 V2000
    3.8621    0.6173   -2.6972 C   0  0  0  0  0  0  0  0  0  0  0  0
    4.1650    1.3393   -1.3990 C   0  0  0  0  0  0  0  0  0  0  0  0
    3.9437    0.5021   -0.2509 O   0  0  0  0  0  0  0  0  0  0  0  0
    2.4968    0.0579    0.1987 P   0  0  0  0  0  0  0  0  0  0  0  0
    1.1122    1.4338   -0.0529 S   0  0  0  0  0  0  0  0  0  0  0  0
    2.9175   -0.3147    1.6768 O   0  0  0  0  0  0  0  0  0  0  0  0
    2.1257   -1.0719    2.6089 C   0  0  0  0  0  0  0  0  0  0  0  0
    1.0914   -0.2055    3.3013 C   0  0  0  0  0  0  0  0  0  0  0  0
    2.1393   -1.8056   -0.7720 S   0  0  0  0  0  0  0  0  0  0  0  0
    0.3779   -1.6315   -1.1283 C   0  0  0  0  0  0  0  0  0  0  0  0
   -0.6375   -1.6353    0.3949 S   0  0  0  0  0  0  0  0  0  0  0  0
   -2.0794   -0.1836   -0.1115 P   0  0  0  0  0  0  0  0  0  0  0  0
   -1.9866    0.5900   -1.9134 S   0  0  0  0  0  0  0  0  0  0  0  0
   -2.1183    0.8690    1.0830 O   0  0  0  0  0  0  0  0  0  0  0  0
   -1.9327    2.2864    0.9414 C   0  0  0  0  0  0  0  0  0  0  0  0
   -3.2729    2.9932    0.9674 C   0  0  0  0  0  0  0  0  0  0  0  0
   -3.3171   -1.1210    0.2319 O   0  0  0  0  0  0  0  0  0  0  0  0
   -4.6648   -0.6396    0.4034 C   0  0  0  0  0  0  0  0  0  0  0  0
   -5.3584   -0.4162   -0.9262 C   0  0  0  0  0  0  0  0  0  0  0  0
    2.7916    0.4335   -2.7820 H   0  0  0  0  0  0  0  0  0  0  0  0
    4.1774    1.2333   -3.5333 H   0  0  0  0  0  0  0  0  0  0  0  0
    4.3861   -0.3344   -2.7300 H   0  0  0  0  0  0  0  0  0  0  0  0
    3.5455    2.2373   -1.3035 H   0  0  0  0  0  0  0  0  0  0  0  0
    5.2194    1.6087   -1.3254 H   0  0  0  0  0  0  0  0  0  0  0  0
    1.6469   -1.9080    2.0883 H   0  0  0  0  0  0  0  0  0  0  0  0
    2.8589   -1.4551    3.3210 H   0  0  0  0  0  0  0  0  0  0  0  0
    1.5703    0.6562    3.7588 H   0  0  0  0  0  0  0  0  0  0  0  0
    0.3489    0.1461    2.5872 H   0  0  0  0  0  0  0  0  0  0  0  0
    0.5893   -0.7902    4.0652 H   0  0  0  0  0  0  0  0  0  0  0  0
    0.1098   -2.4938   -1.7331 H   0  0  0  0  0  0  0  0  0  0  0  0
    0.1853   -0.6984   -1.6647 H   0  0  0  0  0  0  0  0  0  0  0  0
   -1.3004    2.5824    1.7798 H   0  0  0  0  0  0  0  0  0  0  0  0
   -1.4022    2.4904    0.0062 H   0  0  0  0  0  0  0  0  0  0  0  0
   -3.8670    2.6963    0.1050 H   0  0  0  0  0  0  0  0  0  0  0  0
   -3.8114    2.7462    1.8785 H   0  0  0  0  0  0  0  0  0  0  0  0
   -3.1075    4.0649    0.9281 H   0  0  0  0  0  0  0  0  0  0  0  0
   -5.1517   -1.4314    0.9757 H   0  0  0  0  0  0  0  0  0  0  0  0
   -4.6399    0.2786    0.9962 H   0  0  0  0  0  0  0  0  0  0  0  0
   -6.3849   -0.1112   -0.7486 H   0  0  0  0  0  0  0  0  0  0  0  0
   -4.8501    0.3588   -1.4969 H   0  0  0  0  0  0  0  0  0  0  0  0
   -5.3508   -1.3322   -1.5107 H   0  0  0  0  0  0  0  0  0  0  0  0
  1  2  1  0  0  0  0
  2  3  1  0  0  0  0
  3  4  2  0  0  0  0
  4  5  2  0  0  0  0
  4  6  2  0  0  0  0
  6  7  1  0  0  0  0
  7  8  1  0  0  0  0
  4  9  1  0  0  0  0
  9 10  1  0  0  0  0
 10 11  1  0  0  0  0
 11 12  1  0  0  0  0
 12 13  2  0  0  0  0
 12 14  2  0  0  0  0
 14 15  1  0  0  0  0
 15 16  1  0  0  0  0
 12 17  2  0  0  0  0
 17 18  1  0  0  0  0
 18 19  1  0  0  0  0
  1 20  1  0  0  0  0
  1 21  1  0  0  0  0
  1 22  1  0  0  0  0
  2 23  1  0  0  0  0
  2 24  1  0  0  0  0
  7 25  1  0  0  0  0
  7 26  1  0  0  0  0
  8 27  1  0  0  0  0
  8 28  1  0  0  0  0
  8 29  1  0  0  0  0
 10 30  1  0  0  0  0
 10 31  1  0  0  0  0
 15 32  1  0  0  0  0
 15 33  1  0  0  0  0
 16 34  1  0  0  0  0
 16 35  1  0  0  0  0
 16 36  1  0  0  0  0
 18 37  1  0  0  0  0
 18 38  1  0  0  0  0
 19 39  1  0  0  0  0
 19 40  1  0  0  0  0
 19 41  1  0  0  0  0
M  END
