 xtb: 6.7.1 (edcfbbe)
          04092505213D

 41 40  0     0  0            999 V2000
    4.3340   -2.0253   -0.1177 C   0  0  0  0  0  0  0  0  0  0  0  0
    4.8255   -0.6053   -0.3080 C   0  0  0  0  0  0  0  0  0  0  0  0
    3.8396    0.3723    0.0745 O   0  0  0  0  0  0  0  0  0  0  0  0
    2.4582    0.5432   -0.6963 P   0  0  0  0  0  0  0  0  0  0  0  0
    2.5203    0.3819   -2.6423 S   0  0  0  0  0  0  0  0  0  0  0  0
    2.0064    1.9813   -0.2335 O   0  0  0  0  0  0  0  0  0  0  0  0
    2.0232    2.3810    1.1610 C   0  0  0  0  0  0  0  0  0  0  0  0
    1.0434    3.5218    1.3348 C   0  0  0  0  0  0  0  0  0  0  0  0
    1.1372   -0.7966    0.2978 S   0  0  0  0  0  0  0  0  0  0  0  0
   -0.0745   -0.8941   -1.0671 C   0  0  0  0  0  0  0  0  0  0  0  0
   -1.5007   -1.8832   -0.5950 S   0  0  0  0  0  0  0  0  0  0  0  0
   -2.5627   -0.3945    0.5154 P   0  0  0  0  0  0  0  0  0  0  0  0
   -1.9832    1.4586    0.1987 S   0  0  0  0  0  0  0  0  0  0  0  0
   -2.5988   -0.9290    2.0024 O   0  0  0  0  0  0  0  0  0  0  0  0
   -1.4379   -1.2218    2.8012 C   0  0  0  0  0  0  0  0  0  0  0  0
   -0.8413    0.0352    3.4037 C   0  0  0  0  0  0  0  0  0  0  0  0
   -4.0924   -0.6650    0.2296 O   0  0  0  0  0  0  0  0  0  0  0  0
   -4.7969   -0.0190   -0.8438 C   0  0  0  0  0  0  0  0  0  0  0  0
   -4.3735   -0.5461   -2.2009 C   0  0  0  0  0  0  0  0  0  0  0  0
    5.1535   -2.7138   -0.2971 H   0  0  0  0  0  0  0  0  0  0  0  0
    3.9583   -2.1653    0.8929 H   0  0  0  0  0  0  0  0  0  0  0  0
    3.5343   -2.2407   -0.8249 H   0  0  0  0  0  0  0  0  0  0  0  0
    5.0965   -0.4286   -1.3532 H   0  0  0  0  0  0  0  0  0  0  0  0
    5.6742   -0.3815    0.3397 H   0  0  0  0  0  0  0  0  0  0  0  0
    1.7487    1.5170    1.7742 H   0  0  0  0  0  0  0  0  0  0  0  0
    3.0433    2.6837    1.4040 H   0  0  0  0  0  0  0  0  0  0  0  0
    1.3253    4.3553    0.6983 H   0  0  0  0  0  0  0  0  0  0  0  0
    0.0400    3.2034    1.0599 H   0  0  0  0  0  0  0  0  0  0  0  0
    1.0469    3.8402    2.3721 H   0  0  0  0  0  0  0  0  0  0  0  0
    0.3917   -1.3748   -1.9247 H   0  0  0  0  0  0  0  0  0  0  0  0
   -0.3984    0.1203   -1.3123 H   0  0  0  0  0  0  0  0  0  0  0  0
   -1.8161   -1.8923    3.5749 H   0  0  0  0  0  0  0  0  0  0  0  0
   -0.6980   -1.7491    2.1890 H   0  0  0  0  0  0  0  0  0  0  0  0
   -0.4915    0.6996    2.6168 H   0  0  0  0  0  0  0  0  0  0  0  0
   -1.5880    0.5606    3.9927 H   0  0  0  0  0  0  0  0  0  0  0  0
   -0.0034   -0.2352    4.0378 H   0  0  0  0  0  0  0  0  0  0  0  0
   -5.8453   -0.2387   -0.6381 H   0  0  0  0  0  0  0  0  0  0  0  0
   -4.6263    1.0610   -0.7780 H   0  0  0  0  0  0  0  0  0  0  0  0
   -4.4346   -1.6312   -2.2186 H   0  0  0  0  0  0  0  0  0  0  0  0
   -5.0250   -0.1352   -2.9656 H   0  0  0  0  0  0  0  0  0  0  0  0
   -3.3481   -0.2485   -2.4171 H   0  0  0  0  0  0  0  0  0  0  0  0
  1  2  1  0  0  0  0
  2  3  1  0  0  0  0
  3  4  2  0  0  0  0
  4  5  2  0  0  0  0
  4  6  2  0  0  0  0
  6  7  1  0  0  0  0
  7  8  1  0  0  0  0
  4  9  1  0  0  0  0
  9 10  1  0  0  0  0
 10 11  1  0  0  0  0
 11 12  1  0  0  0  0
 12 13  2  0  0  0  0
 12 14  2  0  0  0  0
 14 15  1  0  0  0  0
 15 16  1  0  0  0  0
 12 17  2  0  0  0  0
 17 18  1  0  0  0  0
 18 19  1  0  0  0  0
  1 20  1  0  0  0  0
  1 21  1  0  0  0  0
  1 22  1  0  0  0  0
  2 23  1  0  0  0  0
  2 24  1  0  0  0  0
  7 25  1  0  0  0  0
  7 26  1  0  0  0  0
  8 27  1  0  0  0  0
  8 28  1  0  0  0  0
  8 29  1  0  0  0  0
 10 30  1  0  0  0  0
 10 31  1  0  0  0  0
 15 32  1  0  0  0  0
 15 33  1  0  0  0  0
 16 34  1  0  0  0  0
 16 35  1  0  0  0  0
 16 36  1  0  0  0  0
 18 37  1  0  0  0  0
 18 38  1  0  0  0  0
 19 39  1  0  0  0  0
 19 40  1  0  0  0  0
 19 41  1  0  0  0  0
M  END
