 xtb: 6.7.1 (edcfbbe)
          04092505213D

 41 40  0     0  0            999 V2000
    3.6032    1.7893   -1.8471 C   0  0  0  0  0  0  0  0  0  0  0  0
    2.3428    1.0101   -2.1541 C   0  0  0  0  0  0  0  0  0  0  0  0
    2.2618   -0.2123   -1.3940 O   0  0  0  0  0  0  0  0  0  0  0  0
    2.1603   -0.2495    0.1837 P   0  0  0  0  0  0  0  0  0  0  0  0
    1.0948    1.1757    1.0246 S   0  0  0  0  0  0  0  0  0  0  0  0
    3.6829   -0.2501    0.6321 O   0  0  0  0  0  0  0  0  0  0  0  0
    4.0910    0.0114    1.9858 C   0  0  0  0  0  0  0  0  0  0  0  0
    3.6423   -1.0805    2.9354 C   0  0  0  0  0  0  0  0  0  0  0  0
    1.6047   -2.2684    0.4203 S   0  0  0  0  0  0  0  0  0  0  0  0
   -0.1166   -2.1967   -0.1350 C   0  0  0  0  0  0  0  0  0  0  0  0
   -1.2313   -1.4114    1.0861 S   0  0  0  0  0  0  0  0  0  0  0  0
   -2.1274    0.0238   -0.1637 P   0  0  0  0  0  0  0  0  0  0  0  0
   -1.1884    0.5704   -1.8015 S   0  0  0  0  0  0  0  0  0  0  0  0
   -2.5996    1.2171    0.7676 O   0  0  0  0  0  0  0  0  0  0  0  0
   -1.9597    2.4989    0.8928 C   0  0  0  0  0  0  0  0  0  0  0  0
   -3.0374    3.5602    0.9820 C   0  0  0  0  0  0  0  0  0  0  0  0
   -3.4932   -0.7504   -0.3879 O   0  0  0  0  0  0  0  0  0  0  0  0
   -4.5505   -0.2171   -1.2170 C   0  0  0  0  0  0  0  0  0  0  0  0
   -4.5114   -0.8437   -2.5970 C   0  0  0  0  0  0  0  0  0  0  0  0
    3.6718    2.6382   -2.5201 H   0  0  0  0  0  0  0  0  0  0  0  0
    3.5737    2.1525   -0.8204 H   0  0  0  0  0  0  0  0  0  0  0  0
    4.4759    1.1536   -1.9716 H   0  0  0  0  0  0  0  0  0  0  0  0
    2.3132    0.6698   -3.1900 H   0  0  0  0  0  0  0  0  0  0  0  0
    1.4498    1.6079   -1.9455 H   0  0  0  0  0  0  0  0  0  0  0  0
    5.1782    0.0725    1.9240 H   0  0  0  0  0  0  0  0  0  0  0  0
    3.6783    0.9787    2.2907 H   0  0  0  0  0  0  0  0  0  0  0  0
    2.5554   -1.0805    3.0150 H   0  0  0  0  0  0  0  0  0  0  0  0
    3.9643   -2.0531    2.5718 H   0  0  0  0  0  0  0  0  0  0  0  0
    4.0669   -0.9012    3.9179 H   0  0  0  0  0  0  0  0  0  0  0  0
   -0.4293   -3.2292   -0.2633 H   0  0  0  0  0  0  0  0  0  0  0  0
   -0.1755   -1.6408   -1.0739 H   0  0  0  0  0  0  0  0  0  0  0  0
   -1.3403    2.4742    1.7922 H   0  0  0  0  0  0  0  0  0  0  0  0
   -1.3090    2.6587    0.0266 H   0  0  0  0  0  0  0  0  0  0  0  0
   -3.6150    3.5904    0.0615 H   0  0  0  0  0  0  0  0  0  0  0  0
   -3.7032    3.3407    1.8116 H   0  0  0  0  0  0  0  0  0  0  0  0
   -2.5683    4.5254    1.1411 H   0  0  0  0  0  0  0  0  0  0  0  0
   -5.4704   -0.4720   -0.6882 H   0  0  0  0  0  0  0  0  0  0  0  0
   -4.4519    0.8704   -1.2739 H   0  0  0  0  0  0  0  0  0  0  0  0
   -3.5868   -0.5783   -3.1053 H   0  0  0  0  0  0  0  0  0  0  0  0
   -4.5684   -1.9254   -2.5150 H   0  0  0  0  0  0  0  0  0  0  0  0
   -5.3526   -0.4811   -3.1791 H   0  0  0  0  0  0  0  0  0  0  0  0
  1  2  1  0  0  0  0
  2  3  1  0  0  0  0
  3  4  2  0  0  0  0
  4  5  2  0  0  0  0
  4  6  2  0  0  0  0
  6  7  1  0  0  0  0
  7  8  1  0  0  0  0
  4  9  1  0  0  0  0
  9 10  1  0  0  0  0
 10 11  1  0  0  0  0
 11 12  1  0  0  0  0
 12 13  2  0  0  0  0
 12 14  2  0  0  0  0
 14 15  1  0  0  0  0
 15 16  1  0  0  0  0
 12 17  2  0  0  0  0
 17 18  1  0  0  0  0
 18 19  1  0  0  0  0
  1 20  1  0  0  0  0
  1 21  1  0  0  0  0
  1 22  1  0  0  0  0
  2 23  1  0  0  0  0
  2 24  1  0  0  0  0
  7 25  1  0  0  0  0
  7 26  1  0  0  0  0
  8 27  1  0  0  0  0
  8 28  1  0  0  0  0
  8 29  1  0  0  0  0
 10 30  1  0  0  0  0
 10 31  1  0  0  0  0
 15 32  1  0  0  0  0
 15 33  1  0  0  0  0
 16 34  1  0  0  0  0
 16 35  1  0  0  0  0
 16 36  1  0  0  0  0
 18 37  1  0  0  0  0
 18 38  1  0  0  0  0
 19 39  1  0  0  0  0
 19 40  1  0  0  0  0
 19 41  1  0  0  0  0
M  END
