 xtb: 6.7.1 (edcfbbe)
          04032520343D

 19 19  0     0  0            999 V2000
    2.1692   -1.1792    0.1631 C   0  0  0  0  0  0  0  0  0  0  0  0
    1.4064    0.1211    0.0884 C   0  0  0  0  0  0  0  0  0  0  0  0
    1.9710    1.2202    0.1193 O   0  0  0  0  0  0  0  0  0  0  0  0
    0.0790    0.0225   -0.0148 N   0  0  0  0  0  0  0  0  0  0  0  0
   -0.6953   -1.2074   -0.0317 C   0  0  0  0  0  0  0  0  0  0  0  0
   -2.1211   -0.7434   -0.3284 C   0  0  0  0  0  0  0  0  0  0  0  0
   -2.1611    0.6543    0.2866 C   0  0  0  0  0  0  0  0  0  0  0  0
   -0.7783    1.1989   -0.0512 C   0  0  0  0  0  0  0  0  0  0  0  0
    1.8168   -1.7756    1.0004 H   0  0  0  0  0  0  0  0  0  0  0  0
    3.2243   -0.9565    0.2924 H   0  0  0  0  0  0  0  0  0  0  0  0
    2.0323   -1.7462   -0.7542 H   0  0  0  0  0  0  0  0  0  0  0  0
   -0.3169   -1.8959   -0.7888 H   0  0  0  0  0  0  0  0  0  0  0  0
   -0.6382   -1.6962    0.9467 H   0  0  0  0  0  0  0  0  0  0  0  0
   -2.2767   -0.6787   -1.4050 H   0  0  0  0  0  0  0  0  0  0  0  0
   -2.8652   -1.4125    0.0955 H   0  0  0  0  0  0  0  0  0  0  0  0
   -2.9552    1.2734   -0.1214 H   0  0  0  0  0  0  0  0  0  0  0  0
   -2.2833    0.5881    1.3675 H   0  0  0  0  0  0  0  0  0  0  0  0
   -0.7515    1.6393   -1.0538 H   0  0  0  0  0  0  0  0  0  0  0  0
   -0.4054    1.9444    0.6537 H   0  0  0  0  0  0  0  0  0  0  0  0
  1  2  1  0  0  0  0
  2  3  2  0  0  0  0
  2  4  4  0  0  0  0
  4  5  1  0  0  0  0
  5  6  1  0  0  0  0
  6  7  1  0  0  0  0
  4  8  1  0  0  0  0
  7  8  1  0  0  0  0
  1  9  1  0  0  0  0
  1 10  1  0  0  0  0
  1 11  1  0  0  0  0
  5 12  1  0  0  0  0
  5 13  1  0  0  0  0
  6 14  1  0  0  0  0
  6 15  1  0  0  0  0
  7 16  1  0  0  0  0
  7 17  1  0  0  0  0
  8 18  1  0  0  0  0
  8 19  1  0  0  0  0
M  END
