 xtb: 6.7.1 (edcfbbe)
          04032519423D

 15 15  0     0  0            999 V2000
   -2.4399   -0.0006    0.0062 C   0  0  0  0  0  0  0  0  0  0  0  0
   -0.9414   -0.0033   -0.0085 C   0  0  0  0  0  0  0  0  0  0  0  0
   -0.2291   -1.1961   -0.0049 C   0  0  0  0  0  0  0  0  0  0  0  0
    1.1549   -1.1950    0.0015 C   0  0  0  0  0  0  0  0  0  0  0  0
    1.8491    0.0027    0.0047 C   0  0  0  0  0  0  0  0  0  0  0  0
    1.1498    1.1980    0.0016 C   0  0  0  0  0  0  0  0  0  0  0  0
   -0.2335    1.1932   -0.0050 C   0  0  0  0  0  0  0  0  0  0  0  0
   -2.8331   -0.9426   -0.3671 H   0  0  0  0  0  0  0  0  0  0  0  0
   -2.7996    0.1388    1.0256 H   0  0  0  0  0  0  0  0  0  0  0  0
   -2.8295    0.8131   -0.6008 H   0  0  0  0  0  0  0  0  0  0  0  0
   -0.7638   -2.1352   -0.0088 H   0  0  0  0  0  0  0  0  0  0  0  0
    1.6931   -2.1316    0.0025 H   0  0  0  0  0  0  0  0  0  0  0  0
    2.9289    0.0050    0.0075 H   0  0  0  0  0  0  0  0  0  0  0  0
    1.6844    2.1367    0.0021 H   0  0  0  0  0  0  0  0  0  0  0  0
   -0.7735    2.1293   -0.0089 H   0  0  0  0  0  0  0  0  0  0  0  0
  1  2  1  0  0  0  0
  2  3  4  0  0  0  0
  3  4  4  0  0  0  0
  4  5  4  0  0  0  0
  5  6  4  0  0  0  0
  2  7  4  0  0  0  0
  6  7  4  0  0  0  0
  1  8  1  0  0  0  0
  1  9  1  0  0  0  0
  1 10  1  0  0  0  0
  3 11  1  0  0  0  0
  4 12  1  0  0  0  0
  5 13  1  0  0  0  0
  6 14  1  0  0  0  0
  7 15  1  0  0  0  0
M  END
