 xtb: 6.7.1 (edcfbbe)
          04092507313D

 38 37  0     0  0            999 V2000
    4.0301   -1.6259    1.3212 C   0  0  0  0  0  0  0  0  0  0  0  0
    2.8264   -2.0796    0.5194 C   0  0  0  0  0  0  0  0  0  0  0  0
    2.5796   -1.1017   -0.5094 O   0  0  0  0  0  0  0  0  0  0  0  0
    1.4048   -1.0761   -1.0901 C   0  0  0  0  0  0  0  0  0  0  0  0
    0.4908   -1.8385   -0.8365 O   0  0  0  0  0  0  0  0  0  0  0  0
    1.3007    0.0265   -2.1226 C   0  0  0  0  0  0  0  0  0  0  0  0
    0.1722    0.9910   -1.7629 C   0  0  0  0  0  0  0  0  0  0  0  0
    0.0580    1.7365   -2.5562 H   0  0  0  0  0  0  0  0  0  0  0  0
    0.3780    1.7337   -0.4539 C   0  0  0  0  0  0  0  0  0  0  0  0
   -0.5515    2.1948    0.1810 O   0  0  0  0  0  0  0  0  0  0  0  0
    1.6360    1.8369   -0.1310 O   0  0  0  0  0  0  0  0  0  0  0  0
    1.9735    2.4886    1.1113 C   0  0  0  0  0  0  0  0  0  0  0  0
    3.4686    2.7342    1.1119 C   0  0  0  0  0  0  0  0  0  0  0  0
   -1.4644    0.1805   -1.6865 S   0  0  0  0  0  0  0  0  0  0  0  0
   -1.7063   -0.2989    0.3751 P   0  0  0  0  0  0  0  0  0  0  0  0
   -0.2880   -0.4468    1.7182 S   0  0  0  0  0  0  0  0  0  0  0  0
   -2.8010    0.7031    0.9278 O   0  0  0  0  0  0  0  0  0  0  0  0
   -4.0251    1.0084    0.2384 C   0  0  0  0  0  0  0  0  0  0  0  0
   -2.6221   -1.6091    0.2556 O   0  0  0  0  0  0  0  0  0  0  0  0
   -2.1619   -2.9098   -0.1133 C   0  0  0  0  0  0  0  0  0  0  0  0
    4.8781   -1.4691    0.6614 H   0  0  0  0  0  0  0  0  0  0  0  0
    3.8014   -0.6992    1.8394 H   0  0  0  0  0  0  0  0  0  0  0  0
    4.2777   -2.3869    2.0534 H   0  0  0  0  0  0  0  0  0  0  0  0
    1.9317   -2.1594    1.1447 H   0  0  0  0  0  0  0  0  0  0  0  0
    3.0056   -3.0416    0.0300 H   0  0  0  0  0  0  0  0  0  0  0  0
    1.0709   -0.4279   -3.0873 H   0  0  0  0  0  0  0  0  0  0  0  0
    2.2467    0.5639   -2.1672 H   0  0  0  0  0  0  0  0  0  0  0  0
    1.3978    3.4161    1.1841 H   0  0  0  0  0  0  0  0  0  0  0  0
    1.6631    1.8246    1.9252 H   0  0  0  0  0  0  0  0  0  0  0  0
    3.7563    3.1728    2.0612 H   0  0  0  0  0  0  0  0  0  0  0  0
    3.9958    1.7949    0.9751 H   0  0  0  0  0  0  0  0  0  0  0  0
    3.7382    3.4109    0.3067 H   0  0  0  0  0  0  0  0  0  0  0  0
   -4.6326    0.1096    0.1458 H   0  0  0  0  0  0  0  0  0  0  0  0
   -3.8053    1.4186   -0.7474 H   0  0  0  0  0  0  0  0  0  0  0  0
   -4.5191    1.7504    0.8603 H   0  0  0  0  0  0  0  0  0  0  0  0
   -1.8909   -2.9252   -1.1678 H   0  0  0  0  0  0  0  0  0  0  0  0
   -2.9970   -3.5767    0.0863 H   0  0  0  0  0  0  0  0  0  0  0  0
   -1.2937   -3.1863    0.4841 H   0  0  0  0  0  0  0  0  0  0  0  0
  1  2  1  0  0  0  0
  2  3  1  0  0  0  0
  3  4  4  0  0  0  0
  4  5  2  0  0  0  0
  4  6  1  0  0  0  0
  6  7  1  0  0  0  0
  7  8  1  0  0  0  0
  7  9  1  0  0  0  0
  9 10  2  0  0  0  0
  9 11  4  0  0  0  0
 11 12  1  0  0  0  0
 12 13  1  0  0  0  0
  7 14  1  0  0  0  0
 14 15  1  0  0  0  0
 15 16  2  0  0  0  0
 15 17  2  0  0  0  0
 17 18  1  0  0  0  0
 15 19  1  0  0  0  0
 19 20  1  0  0  0  0
  1 21  1  0  0  0  0
  1 22  1  0  0  0  0
  1 23  1  0  0  0  0
  2 24  1  0  0  0  0
  2 25  1  0  0  0  0
  6 26  1  0  0  0  0
  6 27  1  0  0  0  0
 12 28  1  0  0  0  0
 12 29  1  0  0  0  0
 13 30  1  0  0  0  0
 13 31  1  0  0  0  0
 13 32  1  0  0  0  0
 18 33  1  0  0  0  0
 18 34  1  0  0  0  0
 18 35  1  0  0  0  0
 20 36  1  0  0  0  0
 20 37  1  0  0  0  0
 20 38  1  0  0  0  0
M  END
