 xtb: 6.7.1 (edcfbbe)
          04092509463D

 38 37  0     0  0            999 V2000
    5.8062   -3.0437   -0.7301 C   0  0  0  0  0  0  0  0  0  0  0  0
    4.8058   -2.0827   -1.3434 C   0  0  0  0  0  0  0  0  0  0  0  0
    3.5730   -2.1903   -0.6031 O   0  0  0  0  0  0  0  0  0  0  0  0
    2.6452   -1.2750   -0.7824 C   0  0  0  0  0  0  0  0  0  0  0  0
    2.7480   -0.3301   -1.5382 O   0  0  0  0  0  0  0  0  0  0  0  0
    1.4379   -1.5411    0.0900 C   0  0  0  0  0  0  0  0  0  0  0  0
    0.3409   -0.5345   -0.2076 C   0  0  0  0  0  0  0  0  0  0  0  0
   -0.0771   -0.6584   -1.2124 H   0  0  0  0  0  0  0  0  0  0  0  0
    0.7688    0.9117   -0.0548 C   0  0  0  0  0  0  0  0  0  0  0  0
    0.2736    1.8054   -0.7082 O   0  0  0  0  0  0  0  0  0  0  0  0
    1.6493    1.0750    0.9085 O   0  0  0  0  0  0  0  0  0  0  0  0
    2.0825    2.4148    1.2256 C   0  0  0  0  0  0  0  0  0  0  0  0
    1.0457    3.1553    2.0555 C   0  0  0  0  0  0  0  0  0  0  0  0
   -1.0240   -0.7443    0.9897 S   0  0  0  0  0  0  0  0  0  0  0  0
   -2.5494    0.2909   -0.0713 P   0  0  0  0  0  0  0  0  0  0  0  0
   -2.5583    0.0660   -2.0120 S   0  0  0  0  0  0  0  0  0  0  0  0
   -3.8597   -0.2203    0.6858 O   0  0  0  0  0  0  0  0  0  0  0  0
   -4.3703   -1.5479    0.5041 C   0  0  0  0  0  0  0  0  0  0  0  0
   -2.5147    1.8009    0.3954 O   0  0  0  0  0  0  0  0  0  0  0  0
   -2.6745    2.1693    1.7810 C   0  0  0  0  0  0  0  0  0  0  0  0
    6.7339   -3.0001   -1.2909 H   0  0  0  0  0  0  0  0  0  0  0  0
    6.0000   -2.7755    0.3040 H   0  0  0  0  0  0  0  0  0  0  0  0
    5.4153   -4.0561   -0.7625 H   0  0  0  0  0  0  0  0  0  0  0  0
    4.5967   -2.3309   -2.3884 H   0  0  0  0  0  0  0  0  0  0  0  0
    5.1500   -1.0449   -1.2979 H   0  0  0  0  0  0  0  0  0  0  0  0
    1.7488   -1.4683    1.1339 H   0  0  0  0  0  0  0  0  0  0  0  0
    1.0818   -2.5561   -0.0879 H   0  0  0  0  0  0  0  0  0  0  0  0
    3.0074    2.2656    1.7827 H   0  0  0  0  0  0  0  0  0  0  0  0
    2.2820    2.9441    0.2897 H   0  0  0  0  0  0  0  0  0  0  0  0
    0.1361    3.2908    1.4749 H   0  0  0  0  0  0  0  0  0  0  0  0
    0.8177    2.5973    2.9596 H   0  0  0  0  0  0  0  0  0  0  0  0
    1.4369    4.1307    2.3252 H   0  0  0  0  0  0  0  0  0  0  0  0
   -3.7140   -2.2691    0.9896 H   0  0  0  0  0  0  0  0  0  0  0  0
   -4.4541   -1.7743   -0.5594 H   0  0  0  0  0  0  0  0  0  0  0  0
   -5.3518   -1.5472    0.9722 H   0  0  0  0  0  0  0  0  0  0  0  0
   -3.6925    1.9588    2.1016 H   0  0  0  0  0  0  0  0  0  0  0  0
   -2.4704    3.2364    1.8180 H   0  0  0  0  0  0  0  0  0  0  0  0
   -1.9667    1.6154    2.3985 H   0  0  0  0  0  0  0  0  0  0  0  0
  1  2  1  0  0  0  0
  2  3  1  0  0  0  0
  3  4  1  0  0  0  0
  4  5  2  0  0  0  0
  4  6  1  0  0  0  0
  6  7  1  0  0  0  0
  7  8  1  0  0  0  0
  7  9  1  0  0  0  0
  9 10  2  0  0  0  0
  9 11  1  0  0  0  0
 11 12  1  0  0  0  0
 12 13  1  0  0  0  0
  7 14  1  0  0  0  0
 14 15  1  0  0  0  0
 15 16  2  0  0  0  0
 15 17  2  0  0  0  0
 17 18  1  0  0  0  0
 15 19  2  0  0  0  0
 19 20  1  0  0  0  0
  1 21  1  0  0  0  0
  1 22  1  0  0  0  0
  1 23  1  0  0  0  0
  2 24  1  0  0  0  0
  2 25  1  0  0  0  0
  6 26  1  0  0  0  0
  6 27  1  0  0  0  0
 12 28  1  0  0  0  0
 12 29  1  0  0  0  0
 13 30  1  0  0  0  0
 13 31  1  0  0  0  0
 13 32  1  0  0  0  0
 18 33  1  0  0  0  0
 18 34  1  0  0  0  0
 18 35  1  0  0  0  0
 20 36  1  0  0  0  0
 20 37  1  0  0  0  0
 20 38  1  0  0  0  0
M  END
