 xtb: 6.7.1 (edcfbbe)
          04092505213D

 41 40  0     0  0            999 V2000
    3.5918   -0.6391   -3.0222 C   0  0  0  0  0  0  0  0  0  0  0  0
    2.1721   -0.9650   -2.6068 C   0  0  0  0  0  0  0  0  0  0  0  0
    2.1015   -1.4045   -1.2347 O   0  0  0  0  0  0  0  0  0  0  0  0
    2.2538   -0.4107   -0.0147 P   0  0  0  0  0  0  0  0  0  0  0  0
    1.4527    1.3692   -0.2626 S   0  0  0  0  0  0  0  0  0  0  0  0
    3.8280   -0.3958    0.2094 O   0  0  0  0  0  0  0  0  0  0  0  0
    4.4890    0.5879    1.0224 C   0  0  0  0  0  0  0  0  0  0  0  0
    4.1158    0.4668    2.4859 C   0  0  0  0  0  0  0  0  0  0  0  0
    1.5406   -1.6675    1.5234 S   0  0  0  0  0  0  0  0  0  0  0  0
   -0.1746   -1.1043    1.5901 C   0  0  0  0  0  0  0  0  0  0  0  0
   -1.0287   -1.2939   -0.0128 S   0  0  0  0  0  0  0  0  0  0  0  0
   -2.3812    0.3149    0.1937 P   0  0  0  0  0  0  0  0  0  0  0  0
   -1.8570    1.7985    1.3730 S   0  0  0  0  0  0  0  0  0  0  0  0
   -3.6689   -0.4742    0.6631 O   0  0  0  0  0  0  0  0  0  0  0  0
   -4.7671    0.1726    1.3385 C   0  0  0  0  0  0  0  0  0  0  0  0
   -5.5410    1.0766    0.4029 C   0  0  0  0  0  0  0  0  0  0  0  0
   -2.7722    0.7128   -1.2922 O   0  0  0  0  0  0  0  0  0  0  0  0
   -1.8506    1.3319   -2.2108 C   0  0  0  0  0  0  0  0  0  0  0  0
   -1.4559    0.3362   -3.2844 C   0  0  0  0  0  0  0  0  0  0  0  0
    3.9464    0.2375   -2.4826 H   0  0  0  0  0  0  0  0  0  0  0  0
    4.2482   -1.4763   -2.8010 H   0  0  0  0  0  0  0  0  0  0  0  0
    3.6146   -0.4320   -4.0875 H   0  0  0  0  0  0  0  0  0  0  0  0
    1.7672   -1.8058   -3.1715 H   0  0  0  0  0  0  0  0  0  0  0  0
    1.5259   -0.0890   -2.7234 H   0  0  0  0  0  0  0  0  0  0  0  0
    5.5496    0.3917    0.8596 H   0  0  0  0  0  0  0  0  0  0  0  0
    4.2306    1.5817    0.6420 H   0  0  0  0  0  0  0  0  0  0  0  0
    4.2661   -0.5530    2.8312 H   0  0  0  0  0  0  0  0  0  0  0  0
    4.7308    1.1427    3.0715 H   0  0  0  0  0  0  0  0  0  0  0  0
    3.0687    0.7335    2.6269 H   0  0  0  0  0  0  0  0  0  0  0  0
   -0.2089   -0.0461    1.8662 H   0  0  0  0  0  0  0  0  0  0  0  0
   -0.6639   -1.7221    2.3392 H   0  0  0  0  0  0  0  0  0  0  0  0
   -5.3756   -0.6567    1.7009 H   0  0  0  0  0  0  0  0  0  0  0  0
   -4.3667    0.7426    2.1832 H   0  0  0  0  0  0  0  0  0  0  0  0
   -6.4071    1.4768    0.9206 H   0  0  0  0  0  0  0  0  0  0  0  0
   -4.9062    1.9015    0.0818 H   0  0  0  0  0  0  0  0  0  0  0  0
   -5.8644    0.5218   -0.4737 H   0  0  0  0  0  0  0  0  0  0  0  0
   -2.3877    2.1818   -2.6362 H   0  0  0  0  0  0  0  0  0  0  0  0
   -0.9772    1.7011   -1.6630 H   0  0  0  0  0  0  0  0  0  0  0  0
   -0.7867    0.8178   -3.9903 H   0  0  0  0  0  0  0  0  0  0  0  0
   -0.9549   -0.5198   -2.8366 H   0  0  0  0  0  0  0  0  0  0  0  0
   -2.3419   -0.0132   -3.8063 H   0  0  0  0  0  0  0  0  0  0  0  0
  1  2  1  0  0  0  0
  2  3  1  0  0  0  0
  3  4  2  0  0  0  0
  4  5  2  0  0  0  0
  4  6  2  0  0  0  0
  6  7  1  0  0  0  0
  7  8  1  0  0  0  0
  4  9  1  0  0  0  0
  9 10  1  0  0  0  0
 10 11  1  0  0  0  0
 11 12  1  0  0  0  0
 12 13  2  0  0  0  0
 12 14  2  0  0  0  0
 14 15  1  0  0  0  0
 15 16  1  0  0  0  0
 12 17  2  0  0  0  0
 17 18  1  0  0  0  0
 18 19  1  0  0  0  0
  1 20  1  0  0  0  0
  1 21  1  0  0  0  0
  1 22  1  0  0  0  0
  2 23  1  0  0  0  0
  2 24  1  0  0  0  0
  7 25  1  0  0  0  0
  7 26  1  0  0  0  0
  8 27  1  0  0  0  0
  8 28  1  0  0  0  0
  8 29  1  0  0  0  0
 10 30  1  0  0  0  0
 10 31  1  0  0  0  0
 15 32  1  0  0  0  0
 15 33  1  0  0  0  0
 16 34  1  0  0  0  0
 16 35  1  0  0  0  0
 16 36  1  0  0  0  0
 18 37  1  0  0  0  0
 18 38  1  0  0  0  0
 19 39  1  0  0  0  0
 19 40  1  0  0  0  0
 19 41  1  0  0  0  0
M  END
