 xtb: 6.7.1 (edcfbbe)
          04092505203D

 41 40  0     0  0            999 V2000
    5.7634    0.9560   -0.9865 C   0  0  0  0  0  0  0  0  0  0  0  0
    4.3999    0.3991   -1.3418 C   0  0  0  0  0  0  0  0  0  0  0  0
    3.5991    0.3983   -0.1418 O   0  0  0  0  0  0  0  0  0  0  0  0
    2.0202    0.2411   -0.1983 P   0  0  0  0  0  0  0  0  0  0  0  0
    1.0843    1.5058   -1.3648 S   0  0  0  0  0  0  0  0  0  0  0  0
    1.6271    0.3887    1.3189 O   0  0  0  0  0  0  0  0  0  0  0  0
    2.2984   -0.3792    2.3613 C   0  0  0  0  0  0  0  0  0  0  0  0
    1.2760   -0.7962    3.3974 C   0  0  0  0  0  0  0  0  0  0  0  0
    1.7945   -1.8129   -0.7051 S   0  0  0  0  0  0  0  0  0  0  0  0
    0.0230   -1.7941   -1.0533 C   0  0  0  0  0  0  0  0  0  0  0  0
   -0.9781   -1.4802    0.4306 S   0  0  0  0  0  0  0  0  0  0  0  0
   -2.1320    0.1898   -0.2170 P   0  0  0  0  0  0  0  0  0  0  0  0
   -2.2922    0.4218   -2.1519 S   0  0  0  0  0  0  0  0  0  0  0  0
   -1.5479    1.4839    0.4638 O   0  0  0  0  0  0  0  0  0  0  0  0
   -1.3924    1.6281    1.8962 C   0  0  0  0  0  0  0  0  0  0  0  0
   -2.4900    2.5058    2.4603 C   0  0  0  0  0  0  0  0  0  0  0  0
   -3.4703   -0.0088    0.6206 O   0  0  0  0  0  0  0  0  0  0  0  0
   -4.2625   -1.2106    0.6729 C   0  0  0  0  0  0  0  0  0  0  0  0
   -4.7127   -1.6822   -0.6935 C   0  0  0  0  0  0  0  0  0  0  0  0
    6.3910    0.9508   -1.8715 H   0  0  0  0  0  0  0  0  0  0  0  0
    5.6669    1.9746   -0.6214 H   0  0  0  0  0  0  0  0  0  0  0  0
    6.2229    0.3458   -0.2146 H   0  0  0  0  0  0  0  0  0  0  0  0
    4.4691   -0.6299   -1.7045 H   0  0  0  0  0  0  0  0  0  0  0  0
    3.8961    1.0124   -2.0961 H   0  0  0  0  0  0  0  0  0  0  0  0
    2.7767   -1.2491    1.9031 H   0  0  0  0  0  0  0  0  0  0  0  0
    3.0624    0.2739    2.7848 H   0  0  0  0  0  0  0  0  0  0  0  0
    0.7962    0.0786    3.8265 H   0  0  0  0  0  0  0  0  0  0  0  0
    0.5187   -1.4322    2.9456 H   0  0  0  0  0  0  0  0  0  0  0  0
    1.7814   -1.3488    4.1829 H   0  0  0  0  0  0  0  0  0  0  0  0
   -0.2205   -2.7856   -1.4265 H   0  0  0  0  0  0  0  0  0  0  0  0
   -0.2091   -1.0239   -1.7952 H   0  0  0  0  0  0  0  0  0  0  0  0
   -1.4002    0.6355    2.3555 H   0  0  0  0  0  0  0  0  0  0  0  0
   -0.4067    2.0822    2.0213 H   0  0  0  0  0  0  0  0  0  0  0  0
   -2.3238    2.6440    3.5240 H   0  0  0  0  0  0  0  0  0  0  0  0
   -2.4820    3.4731    1.9652 H   0  0  0  0  0  0  0  0  0  0  0  0
   -3.4595    2.0406    2.3022 H   0  0  0  0  0  0  0  0  0  0  0  0
   -3.6762   -1.9843    1.1761 H   0  0  0  0  0  0  0  0  0  0  0  0
   -5.1134   -0.9267    1.2947 H   0  0  0  0  0  0  0  0  0  0  0  0
   -5.2354   -0.8853   -1.2169 H   0  0  0  0  0  0  0  0  0  0  0  0
   -3.8539   -1.9759   -1.2949 H   0  0  0  0  0  0  0  0  0  0  0  0
   -5.3753   -2.5340   -0.5793 H   0  0  0  0  0  0  0  0  0  0  0  0
  1  2  1  0  0  0  0
  2  3  1  0  0  0  0
  3  4  2  0  0  0  0
  4  5  2  0  0  0  0
  4  6  2  0  0  0  0
  6  7  1  0  0  0  0
  7  8  1  0  0  0  0
  4  9  1  0  0  0  0
  9 10  1  0  0  0  0
 10 11  1  0  0  0  0
 11 12  1  0  0  0  0
 12 13  2  0  0  0  0
 12 14  2  0  0  0  0
 14 15  1  0  0  0  0
 15 16  1  0  0  0  0
 12 17  2  0  0  0  0
 17 18  1  0  0  0  0
 18 19  1  0  0  0  0
  1 20  1  0  0  0  0
  1 21  1  0  0  0  0
  1 22  1  0  0  0  0
  2 23  1  0  0  0  0
  2 24  1  0  0  0  0
  7 25  1  0  0  0  0
  7 26  1  0  0  0  0
  8 27  1  0  0  0  0
  8 28  1  0  0  0  0
  8 29  1  0  0  0  0
 10 30  1  0  0  0  0
 10 31  1  0  0  0  0
 15 32  1  0  0  0  0
 15 33  1  0  0  0  0
 16 34  1  0  0  0  0
 16 35  1  0  0  0  0
 16 36  1  0  0  0  0
 18 37  1  0  0  0  0
 18 38  1  0  0  0  0
 19 39  1  0  0  0  0
 19 40  1  0  0  0  0
 19 41  1  0  0  0  0
M  END
