  20
 
 C         -3.6476415490        0.0486729636        0.0899407630
 C         -2.1551650265        0.0177386613        0.0204111906
 C         -1.4684096181       -1.1871651695       -0.0973255741
 C         -0.0923187118       -1.2064818006       -0.1769545475
 C          0.6465057576       -0.0205105586       -0.1439861586
 C         -0.0423764358        1.1891454301       -0.0298640076
 C         -1.4196146295        1.2000635942        0.0515891577
 C          2.1165313625       -0.1091083035       -0.2276096546
 O          2.6857636165       -1.1920491906       -0.2880515303
 C          2.8970527787        1.1764522060       -0.2381901000
 H         -4.0561279159        0.2274727069       -0.9042985479
 H         -4.0391822276       -0.8979735937        0.4517287802
 H         -3.9870983376        0.8506644580        0.7402603831
 H         -2.0188991567       -2.1158346429       -0.1244111086
 H          0.4458594273       -2.1392660644       -0.2655438698
 H          0.4927065556        2.1240319376        0.0001585095
 H         -1.9396036308        2.1420760140        0.1427887479
 H          2.7079440693        1.7316323185        0.6769277719
 H          2.5957924377        1.7858149137       -1.0862577575
 H          3.9574667509        0.9494189668       -0.3108162525
          20
        -28.42568396
 C         -3.6461490638       -0.0401749845       -0.0085243007
 C         -2.1519687300       -0.0151677983        0.0077588222
 C         -1.4250052338       -1.2034492203        0.0062989986
 C         -0.0454443121       -1.1990638451        0.0022827327
 C          0.6545376426        0.0097171693       -0.0005484561
 C         -0.0753761828        1.2015007225       -0.0001137598
 C         -1.4539451544        1.1887696784        0.0040819803
 C          2.1275575772        0.0912860189       -0.0018225828
 O          2.7042384556        1.1719252637        0.0002807107
 C          2.9009475635       -1.1986494559       -0.0040579767
 H         -4.0549776895        0.9034033020        0.3417677596
 H         -3.9977131686       -0.2073235154       -1.0263339938
 H         -4.0245857424       -0.8484877739        0.6120787344
 H         -1.9541844276       -2.1447800278        0.0093913644
 H          0.4825252903       -2.1385117762        0.0030778456
 H          0.4714628266        2.1334173190       -0.0014307340
 H         -1.9974080067        2.1219489867        0.0058061377
 H          2.6557187806       -1.7776552733        0.8825432376
 H          3.9650600395       -0.9771788972       -0.0102021715
 H          2.6462057589       -1.7820691057       -0.8849744041
