 xtb: 6.7.1 (edcfbbe)
          04092507313D

 38 37  0     0  0            999 V2000
    5.3828   -1.9102   -1.2095 C   0  0  0  0  0  0  0  0  0  0  0  0
    4.5770   -0.6208   -1.2190 C   0  0  0  0  0  0  0  0  0  0  0  0
    3.1642   -0.8952   -1.2718 O   0  0  0  0  0  0  0  0  0  0  0  0
    2.5240   -1.1018   -0.1370 C   0  0  0  0  0  0  0  0  0  0  0  0
    3.0364   -1.0757    0.9579 O   0  0  0  0  0  0  0  0  0  0  0  0
    1.0503   -1.3845   -0.3780 C   0  0  0  0  0  0  0  0  0  0  0  0
    0.4073   -0.2454   -1.1740 C   0  0  0  0  0  0  0  0  0  0  0  0
    0.9251   -0.1233   -2.1285 H   0  0  0  0  0  0  0  0  0  0  0  0
    0.4682    1.0474   -0.3892 C   0  0  0  0  0  0  0  0  0  0  0  0
   -0.5290    1.6309   -0.0092 O   0  0  0  0  0  0  0  0  0  0  0  0
    1.6936    1.4345   -0.1737 O   0  0  0  0  0  0  0  0  0  0  0  0
    1.9165    2.5546    0.7136 C   0  0  0  0  0  0  0  0  0  0  0  0
    1.8962    2.0880    2.1597 C   0  0  0  0  0  0  0  0  0  0  0  0
   -1.3338   -0.5852   -1.5907 S   0  0  0  0  0  0  0  0  0  0  0  0
   -2.3722   -0.0389    0.1818 P   0  0  0  0  0  0  0  0  0  0  0  0
   -1.5693   -0.3047    1.9630 S   0  0  0  0  0  0  0  0  0  0  0  0
   -3.2200    1.2755   -0.0821 O   0  0  0  0  0  0  0  0  0  0  0  0
   -3.0777    2.5149    0.6129 C   0  0  0  0  0  0  0  0  0  0  0  0
   -3.6390   -1.0048   -0.0204 O   0  0  0  0  0  0  0  0  0  0  0  0
   -3.5265   -2.4221    0.1236 C   0  0  0  0  0  0  0  0  0  0  0  0
    5.1290   -2.5173   -2.0739 H   0  0  0  0  0  0  0  0  0  0  0  0
    6.4411   -1.6726   -1.2373 H   0  0  0  0  0  0  0  0  0  0  0  0
    5.1724   -2.4757   -0.3045 H   0  0  0  0  0  0  0  0  0  0  0  0
    4.7748   -0.0349   -2.1165 H   0  0  0  0  0  0  0  0  0  0  0  0
    4.7830   -0.0294   -0.3227 H   0  0  0  0  0  0  0  0  0  0  0  0
    0.5602   -1.5092    0.5900 H   0  0  0  0  0  0  0  0  0  0  0  0
    0.9591   -2.3063   -0.9536 H   0  0  0  0  0  0  0  0  0  0  0  0
    2.8977    2.9318    0.4270 H   0  0  0  0  0  0  0  0  0  0  0  0
    1.1448    3.3064    0.5303 H   0  0  0  0  0  0  0  0  0  0  0  0
    2.1502    2.9163    2.8121 H   0  0  0  0  0  0  0  0  0  0  0  0
    0.9078    1.7169    2.4262 H   0  0  0  0  0  0  0  0  0  0  0  0
    2.6112    1.2808    2.3020 H   0  0  0  0  0  0  0  0  0  0  0  0
   -2.5620    2.3644    1.5627 H   0  0  0  0  0  0  0  0  0  0  0  0
   -4.0874    2.8821    0.7846 H   0  0  0  0  0  0  0  0  0  0  0  0
   -2.5120    3.2088   -0.0062 H   0  0  0  0  0  0  0  0  0  0  0  0
   -4.5471   -2.7933    0.1699 H   0  0  0  0  0  0  0  0  0  0  0  0
   -2.9934   -2.6650    1.0454 H   0  0  0  0  0  0  0  0  0  0  0  0
   -3.0038   -2.8476   -0.7334 H   0  0  0  0  0  0  0  0  0  0  0  0
  1  2  1  0  0  0  0
  2  3  1  0  0  0  0
  3  4  1  0  0  0  0
  4  5  2  0  0  0  0
  4  6  1  0  0  0  0
  6  7  1  0  0  0  0
  7  8  1  0  0  0  0
  7  9  1  0  0  0  0
  9 10  2  0  0  0  0
  9 11  4  0  0  0  0
 11 12  1  0  0  0  0
 12 13  1  0  0  0  0
  7 14  1  0  0  0  0
 14 15  1  0  0  0  0
 15 16  2  0  0  0  0
 15 17  2  0  0  0  0
 17 18  1  0  0  0  0
 15 19  1  0  0  0  0
 19 20  1  0  0  0  0
  1 21  1  0  0  0  0
  1 22  1  0  0  0  0
  1 23  1  0  0  0  0
  2 24  1  0  0  0  0
  2 25  1  0  0  0  0
  6 26  1  0  0  0  0
  6 27  1  0  0  0  0
 12 28  1  0  0  0  0
 12 29  1  0  0  0  0
 13 30  1  0  0  0  0
 13 31  1  0  0  0  0
 13 32  1  0  0  0  0
 18 33  1  0  0  0  0
 18 34  1  0  0  0  0
 18 35  1  0  0  0  0
 20 36  1  0  0  0  0
 20 37  1  0  0  0  0
 20 38  1  0  0  0  0
M  END
