 xtb: 6.7.1 (edcfbbe)
          04032519463D

  7  7  0     0  0            999 V2000
    1.3727   -0.0016    0.0032 C   0  0  0  0  0  0  0  0  0  0  0  0
   -0.0728   -0.0000    0.0054 N   0  0  0  0  0  0  0  0  0  0  0  0
   -0.6478   -1.0704   -0.0021 O   0  0  0  0  0  0  0  0  0  0  0  0
   -0.6451    1.0719   -0.0015 O   0  0  0  0  0  0  0  0  0  0  0  0
    1.7325   -0.9124    0.4759 H   0  0  0  0  0  0  0  0  0  0  0  0
    1.7344    0.8957    0.4997 H   0  0  0  0  0  0  0  0  0  0  0  0
    1.7088    0.0129   -1.0350 H   0  0  0  0  0  0  0  0  0  0  0  0
  1  2  1  0  0  0  0
  2  3  4  0  0  0  0
  2  4  4  0  0  0  0
  3  4  1  0  0  0  0
  1  5  1  0  0  0  0
  1  6  1  0  0  0  0
  1  7  1  0  0  0  0
M  END
