 xtb: 6.7.1 (edcfbbe)
          04092505213D

 41 40  0     0  0            999 V2000
    2.7712   -2.7804    1.4113 C   0  0  0  0  0  0  0  0  0  0  0  0
    1.7159   -2.0205    0.6321 C   0  0  0  0  0  0  0  0  0  0  0  0
    1.9201   -0.6102    0.8110 O   0  0  0  0  0  0  0  0  0  0  0  0
    2.3119    0.4169   -0.3454 P   0  0  0  0  0  0  0  0  0  0  0  0
    3.0070   -0.3910   -1.9807 S   0  0  0  0  0  0  0  0  0  0  0  0
    3.3606    1.3781    0.3313 O   0  0  0  0  0  0  0  0  0  0  0  0
    3.0999    2.2628    1.4485 C   0  0  0  0  0  0  0  0  0  0  0  0
    3.2577    1.5461    2.7738 C   0  0  0  0  0  0  0  0  0  0  0  0
    0.6022    1.6825   -0.5583 S   0  0  0  0  0  0  0  0  0  0  0  0
   -0.1412    0.8198   -1.9582 C   0  0  0  0  0  0  0  0  0  0  0  0
   -0.6493   -0.8747   -1.5536 S   0  0  0  0  0  0  0  0  0  0  0  0
   -2.0942   -0.3718   -0.0960 P   0  0  0  0  0  0  0  0  0  0  0  0
   -3.1282    1.2673   -0.4090 S   0  0  0  0  0  0  0  0  0  0  0  0
   -1.2475   -0.4462    1.2373 O   0  0  0  0  0  0  0  0  0  0  0  0
   -1.6920    0.1770    2.4681 C   0  0  0  0  0  0  0  0  0  0  0  0
   -0.9533    1.4795    2.6978 C   0  0  0  0  0  0  0  0  0  0  0  0
   -2.9426   -1.7120    0.0301 O   0  0  0  0  0  0  0  0  0  0  0  0
   -3.9466   -2.0841   -0.9373 C   0  0  0  0  0  0  0  0  0  0  0  0
   -5.3273   -1.6778   -0.4596 C   0  0  0  0  0  0  0  0  0  0  0  0
    3.7584   -2.5476    1.0184 H   0  0  0  0  0  0  0  0  0  0  0  0
    2.7347   -2.5071    2.4619 H   0  0  0  0  0  0  0  0  0  0  0  0
    2.5897   -3.8454    1.3094 H   0  0  0  0  0  0  0  0  0  0  0  0
    0.7085   -2.2336    0.9979 H   0  0  0  0  0  0  0  0  0  0  0  0
    1.7727   -2.2611   -0.4348 H   0  0  0  0  0  0  0  0  0  0  0  0
    3.8423    3.0543    1.3325 H   0  0  0  0  0  0  0  0  0  0  0  0
    2.0964    2.6831    1.3363 H   0  0  0  0  0  0  0  0  0  0  0  0
    3.1094    2.2574    3.5804 H   0  0  0  0  0  0  0  0  0  0  0  0
    2.5284    0.7451    2.8616 H   0  0  0  0  0  0  0  0  0  0  0  0
    4.2541    1.1195    2.8498 H   0  0  0  0  0  0  0  0  0  0  0  0
    0.5811    0.7370   -2.7698 H   0  0  0  0  0  0  0  0  0  0  0  0
   -1.0127    1.4039   -2.2523 H   0  0  0  0  0  0  0  0  0  0  0  0
   -2.7714    0.3431    2.4174 H   0  0  0  0  0  0  0  0  0  0  0  0
   -1.4685   -0.5549    3.2458 H   0  0  0  0  0  0  0  0  0  0  0  0
   -1.2096    2.1990    1.9228 H   0  0  0  0  0  0  0  0  0  0  0  0
   -1.2313    1.8828    3.6661 H   0  0  0  0  0  0  0  0  0  0  0  0
    0.1192    1.3078    2.6720 H   0  0  0  0  0  0  0  0  0  0  0  0
   -3.7122   -1.6200   -1.8993 H   0  0  0  0  0  0  0  0  0  0  0  0
   -3.8577   -3.1683   -1.0261 H   0  0  0  0  0  0  0  0  0  0  0  0
   -6.0684   -2.0266   -1.1714 H   0  0  0  0  0  0  0  0  0  0  0  0
   -5.5290   -2.1155    0.5140 H   0  0  0  0  0  0  0  0  0  0  0  0
   -5.3944   -0.5950   -0.3802 H   0  0  0  0  0  0  0  0  0  0  0  0
  1  2  1  0  0  0  0
  2  3  1  0  0  0  0
  3  4  2  0  0  0  0
  4  5  2  0  0  0  0
  4  6  2  0  0  0  0
  6  7  1  0  0  0  0
  7  8  1  0  0  0  0
  4  9  1  0  0  0  0
  9 10  1  0  0  0  0
 10 11  1  0  0  0  0
 11 12  1  0  0  0  0
 12 13  2  0  0  0  0
 12 14  2  0  0  0  0
 14 15  1  0  0  0  0
 15 16  1  0  0  0  0
 12 17  2  0  0  0  0
 17 18  1  0  0  0  0
 18 19  1  0  0  0  0
  1 20  1  0  0  0  0
  1 21  1  0  0  0  0
  1 22  1  0  0  0  0
  2 23  1  0  0  0  0
  2 24  1  0  0  0  0
  7 25  1  0  0  0  0
  7 26  1  0  0  0  0
  8 27  1  0  0  0  0
  8 28  1  0  0  0  0
  8 29  1  0  0  0  0
 10 30  1  0  0  0  0
 10 31  1  0  0  0  0
 15 32  1  0  0  0  0
 15 33  1  0  0  0  0
 16 34  1  0  0  0  0
 16 35  1  0  0  0  0
 16 36  1  0  0  0  0
 18 37  1  0  0  0  0
 18 38  1  0  0  0  0
 19 39  1  0  0  0  0
 19 40  1  0  0  0  0
 19 41  1  0  0  0  0
M  END
