10
 xtb: 6.7.1 (edcfbbe)
C            1.86364632768965        0.10320152382845        0.21634806966012
C            0.68416006216879        0.19123854910718       -0.39310019746422
C           -0.52340090147987       -0.58207549444190        0.01792137298110
O           -1.61303557767436        0.34495734716870        0.22013452770794
H            2.72784865140203        0.65664224035565       -0.14022828485662
H            2.00410562766630       -0.53445468102373        1.08659455469663
H            0.55913242841171        0.83732897450627       -1.26204960845957
H           -0.32144344559220       -1.15078392722512        0.93570502775060
H           -0.79118046632571       -1.29354488822988       -0.77730117501157
H           -2.41601397877206       -0.17975846381260        0.33123511077627
