 xtb: 6.7.1 (edcfbbe)
          04092505203D

 41 40  0     0  0            999 V2000
    3.4752    1.9558   -0.9547 C   0  0  0  0  0  0  0  0  0  0  0  0
    3.6220    0.9430    0.1632 C   0  0  0  0  0  0  0  0  0  0  0  0
    2.9645   -0.2924   -0.1838 O   0  0  0  0  0  0  0  0  0  0  0  0
    1.7422   -0.9438    0.6026 P   0  0  0  0  0  0  0  0  0  0  0  0
    1.1538    0.0667    2.1792 S   0  0  0  0  0  0  0  0  0  0  0  0
    2.1721   -2.4415    0.9206 O   0  0  0  0  0  0  0  0  0  0  0  0
    2.7657   -2.8200    2.1762 C   0  0  0  0  0  0  0  0  0  0  0  0
    4.1705   -2.2696    2.3197 C   0  0  0  0  0  0  0  0  0  0  0  0
    0.4620   -1.5137   -0.9749 S   0  0  0  0  0  0  0  0  0  0  0  0
    0.4382    0.0376   -1.9202 C   0  0  0  0  0  0  0  0  0  0  0  0
   -0.1190    1.4675   -0.9479 S   0  0  0  0  0  0  0  0  0  0  0  0
   -2.0674    0.7761   -0.5915 P   0  0  0  0  0  0  0  0  0  0  0  0
   -2.9747   -0.1864   -2.0431 S   0  0  0  0  0  0  0  0  0  0  0  0
   -2.8646    2.0375   -0.0434 O   0  0  0  0  0  0  0  0  0  0  0  0
   -3.5871    2.9295   -0.9128 C   0  0  0  0  0  0  0  0  0  0  0  0
   -2.6591    3.7257   -1.8070 C   0  0  0  0  0  0  0  0  0  0  0  0
   -1.8212   -0.0451    0.7394 O   0  0  0  0  0  0  0  0  0  0  0  0
   -2.7952   -0.9615    1.2831 C   0  0  0  0  0  0  0  0  0  0  0  0
   -2.0539   -2.0842    1.9802 C   0  0  0  0  0  0  0  0  0  0  0  0
    2.4330    2.2488   -1.0708 H   0  0  0  0  0  0  0  0  0  0  0  0
    4.0609    2.8354   -0.7078 H   0  0  0  0  0  0  0  0  0  0  0  0
    3.8386    1.5380   -1.8895 H   0  0  0  0  0  0  0  0  0  0  0  0
    3.1922    1.3218    1.0969 H   0  0  0  0  0  0  0  0  0  0  0  0
    4.6707    0.6825    0.3211 H   0  0  0  0  0  0  0  0  0  0  0  0
    2.1262   -2.4578    2.9879 H   0  0  0  0  0  0  0  0  0  0  0  0
    2.7568   -3.9105    2.1539 H   0  0  0  0  0  0  0  0  0  0  0  0
    4.1340   -1.1833    2.3953 H   0  0  0  0  0  0  0  0  0  0  0  0
    4.6248   -2.6703    3.2204 H   0  0  0  0  0  0  0  0  0  0  0  0
    4.7710   -2.5470    1.4571 H   0  0  0  0  0  0  0  0  0  0  0  0
   -0.2533   -0.1294   -2.7463 H   0  0  0  0  0  0  0  0  0  0  0  0
    1.4379    0.2673   -2.2803 H   0  0  0  0  0  0  0  0  0  0  0  0
   -4.2841    2.3346   -1.5118 H   0  0  0  0  0  0  0  0  0  0  0  0
   -4.1395    3.5721   -0.2261 H   0  0  0  0  0  0  0  0  0  0  0  0
   -1.8991    4.2262   -1.2122 H   0  0  0  0  0  0  0  0  0  0  0  0
   -2.1684    3.0621   -2.5181 H   0  0  0  0  0  0  0  0  0  0  0  0
   -3.2352    4.4647   -2.3545 H   0  0  0  0  0  0  0  0  0  0  0  0
   -3.4191   -0.4002    1.9824 H   0  0  0  0  0  0  0  0  0  0  0  0
   -3.4153   -1.3412    0.4631 H   0  0  0  0  0  0  0  0  0  0  0  0
   -2.7706   -2.7523    2.4462 H   0  0  0  0  0  0  0  0  0  0  0  0
   -1.4547   -2.6416    1.2627 H   0  0  0  0  0  0  0  0  0  0  0  0
   -1.3949   -1.6714    2.7404 H   0  0  0  0  0  0  0  0  0  0  0  0
  1  2  1  0  0  0  0
  2  3  1  0  0  0  0
  3  4  2  0  0  0  0
  4  5  2  0  0  0  0
  4  6  2  0  0  0  0
  6  7  1  0  0  0  0
  7  8  1  0  0  0  0
  4  9  1  0  0  0  0
  9 10  1  0  0  0  0
 10 11  1  0  0  0  0
 11 12  1  0  0  0  0
 12 13  2  0  0  0  0
 12 14  2  0  0  0  0
 14 15  1  0  0  0  0
 15 16  1  0  0  0  0
 12 17  2  0  0  0  0
 17 18  1  0  0  0  0
 18 19  1  0  0  0  0
  1 20  1  0  0  0  0
  1 21  1  0  0  0  0
  1 22  1  0  0  0  0
  2 23  1  0  0  0  0
  2 24  1  0  0  0  0
  7 25  1  0  0  0  0
  7 26  1  0  0  0  0
  8 27  1  0  0  0  0
  8 28  1  0  0  0  0
  8 29  1  0  0  0  0
 10 30  1  0  0  0  0
 10 31  1  0  0  0  0
 15 32  1  0  0  0  0
 15 33  1  0  0  0  0
 16 34  1  0  0  0  0
 16 35  1  0  0  0  0
 16 36  1  0  0  0  0
 18 37  1  0  0  0  0
 18 38  1  0  0  0  0
 19 39  1  0  0  0  0
 19 40  1  0  0  0  0
 19 41  1  0  0  0  0
M  END
