 xtb: 6.7.1 (edcfbbe)
          04092505203D

 41 40  0     0  0            999 V2000
    4.1141   -1.4508   -2.3638 C   0  0  0  0  0  0  0  0  0  0  0  0
    4.4553   -1.5080   -0.8886 C   0  0  0  0  0  0  0  0  0  0  0  0
    3.2794   -1.5474   -0.0622 O   0  0  0  0  0  0  0  0  0  0  0  0
    2.2942   -0.3108    0.0812 P   0  0  0  0  0  0  0  0  0  0  0  0
    3.1591    1.4512    0.1657 S   0  0  0  0  0  0  0  0  0  0  0  0
    1.4379   -0.7310    1.3481 O   0  0  0  0  0  0  0  0  0  0  0  0
    1.7770   -0.2969    2.6816 C   0  0  0  0  0  0  0  0  0  0  0  0
    3.0604   -0.9350    3.1690 C   0  0  0  0  0  0  0  0  0  0  0  0
    0.8494   -0.6023   -1.4335 S   0  0  0  0  0  0  0  0  0  0  0  0
    0.1250    1.0574   -1.3293 C   0  0  0  0  0  0  0  0  0  0  0  0
   -0.7599    1.3499    0.2184 S   0  0  0  0  0  0  0  0  0  0  0  0
   -2.6059    0.3817   -0.2922 P   0  0  0  0  0  0  0  0  0  0  0  0
   -2.9175    0.0834   -2.1977 S   0  0  0  0  0  0  0  0  0  0  0  0
   -3.7149    1.3160    0.3113 O   0  0  0  0  0  0  0  0  0  0  0  0
   -3.7226    1.7384    1.7008 C   0  0  0  0  0  0  0  0  0  0  0  0
   -4.4017    3.0898    1.7736 C   0  0  0  0  0  0  0  0  0  0  0  0
   -2.7026   -0.8626    0.7016 O   0  0  0  0  0  0  0  0  0  0  0  0
   -1.8054   -1.9833    0.7652 C   0  0  0  0  0  0  0  0  0  0  0  0
   -1.9207   -2.8910   -0.4427 C   0  0  0  0  0  0  0  0  0  0  0  0
    3.4301   -2.2544   -2.6253 H   0  0  0  0  0  0  0  0  0  0  0  0
    3.6414   -0.4985   -2.6015 H   0  0  0  0  0  0  0  0  0  0  0  0
    5.0238   -1.5463   -2.9479 H   0  0  0  0  0  0  0  0  0  0  0  0
    5.0532   -0.6377   -0.5990 H   0  0  0  0  0  0  0  0  0  0  0  0
    4.9861   -2.4260   -0.6332 H   0  0  0  0  0  0  0  0  0  0  0  0
    1.8602    0.7946    2.6781 H   0  0  0  0  0  0  0  0  0  0  0  0
    0.9188   -0.5998    3.2828 H   0  0  0  0  0  0  0  0  0  0  0  0
    3.8997   -0.5798    2.5722 H   0  0  0  0  0  0  0  0  0  0  0  0
    3.2265   -0.6636    4.2068 H   0  0  0  0  0  0  0  0  0  0  0  0
    2.9995   -2.0165    3.0809 H   0  0  0  0  0  0  0  0  0  0  0  0
   -0.5679    1.1482   -2.1666 H   0  0  0  0  0  0  0  0  0  0  0  0
    0.9195    1.8015   -1.3791 H   0  0  0  0  0  0  0  0  0  0  0  0
   -4.2662    0.9812    2.2684 H   0  0  0  0  0  0  0  0  0  0  0  0
   -2.6900    1.7916    2.0580 H   0  0  0  0  0  0  0  0  0  0  0  0
   -3.8393    3.8230    1.2022 H   0  0  0  0  0  0  0  0  0  0  0  0
   -5.4052    3.0226    1.3635 H   0  0  0  0  0  0  0  0  0  0  0  0
   -4.4557    3.4069    2.8100 H   0  0  0  0  0  0  0  0  0  0  0  0
   -0.7812   -1.6156    0.8796 H   0  0  0  0  0  0  0  0  0  0  0  0
   -2.1100   -2.5004    1.6774 H   0  0  0  0  0  0  0  0  0  0  0  0
   -2.9547   -3.1933   -0.5878 H   0  0  0  0  0  0  0  0  0  0  0  0
   -1.5794   -2.3795   -1.3408 H   0  0  0  0  0  0  0  0  0  0  0  0
   -1.3054   -3.7712   -0.2866 H   0  0  0  0  0  0  0  0  0  0  0  0
  1  2  1  0  0  0  0
  2  3  1  0  0  0  0
  3  4  2  0  0  0  0
  4  5  2  0  0  0  0
  4  6  2  0  0  0  0
  6  7  1  0  0  0  0
  7  8  1  0  0  0  0
  4  9  1  0  0  0  0
  9 10  1  0  0  0  0
 10 11  1  0  0  0  0
 11 12  1  0  0  0  0
 12 13  2  0  0  0  0
 12 14  2  0  0  0  0
 14 15  1  0  0  0  0
 15 16  1  0  0  0  0
 12 17  2  0  0  0  0
 17 18  1  0  0  0  0
 18 19  1  0  0  0  0
  1 20  1  0  0  0  0
  1 21  1  0  0  0  0
  1 22  1  0  0  0  0
  2 23  1  0  0  0  0
  2 24  1  0  0  0  0
  7 25  1  0  0  0  0
  7 26  1  0  0  0  0
  8 27  1  0  0  0  0
  8 28  1  0  0  0  0
  8 29  1  0  0  0  0
 10 30  1  0  0  0  0
 10 31  1  0  0  0  0
 15 32  1  0  0  0  0
 15 33  1  0  0  0  0
 16 34  1  0  0  0  0
 16 35  1  0  0  0  0
 16 36  1  0  0  0  0
 18 37  1  0  0  0  0
 18 38  1  0  0  0  0
 19 39  1  0  0  0  0
 19 40  1  0  0  0  0
 19 41  1  0  0  0  0
M  END
