 xtb: 6.7.1 (edcfbbe)
          04092505203D

 41 40  0     0  0            999 V2000
    4.1904   -1.1217   -2.3537 C   0  0  0  0  0  0  0  0  0  0  0  0
    4.2786    0.2648   -1.7505 C   0  0  0  0  0  0  0  0  0  0  0  0
    3.5734    0.3591   -0.5003 O   0  0  0  0  0  0  0  0  0  0  0  0
    1.9922    0.2165   -0.4014 P   0  0  0  0  0  0  0  0  0  0  0  0
    1.0176    1.1124   -1.8384 S   0  0  0  0  0  0  0  0  0  0  0  0
    1.6554    0.8362    1.0069 O   0  0  0  0  0  0  0  0  0  0  0  0
    2.3186    0.4653    2.2427 C   0  0  0  0  0  0  0  0  0  0  0  0
    3.4322    1.4388    2.5647 C   0  0  0  0  0  0  0  0  0  0  0  0
    1.7561   -1.8867   -0.1535 S   0  0  0  0  0  0  0  0  0  0  0  0
    0.0723   -1.9764    0.5096 C   0  0  0  0  0  0  0  0  0  0  0  0
   -1.2231   -1.4453   -0.6490 S   0  0  0  0  0  0  0  0  0  0  0  0
   -2.0425    0.2008    0.4393 P   0  0  0  0  0  0  0  0  0  0  0  0
   -1.3134    0.5107    2.2256 S   0  0  0  0  0  0  0  0  0  0  0  0
   -3.6089   -0.0659    0.3265 O   0  0  0  0  0  0  0  0  0  0  0  0
   -4.2717   -1.3014    0.6523 C   0  0  0  0  0  0  0  0  0  0  0  0
   -4.0250   -1.7433    2.0796 C   0  0  0  0  0  0  0  0  0  0  0  0
   -1.8949    1.4994   -0.4345 O   0  0  0  0  0  0  0  0  0  0  0  0
   -2.4005    1.6082   -1.7875 C   0  0  0  0  0  0  0  0  0  0  0  0
   -3.6963    2.3908   -1.8051 C   0  0  0  0  0  0  0  0  0  0  0  0
    4.8315   -1.1740   -3.2277 H   0  0  0  0  0  0  0  0  0  0  0  0
    4.5015   -1.8713   -1.6302 H   0  0  0  0  0  0  0  0  0  0  0  0
    3.1648   -1.3299   -2.6566 H   0  0  0  0  0  0  0  0  0  0  0  0
    3.8644    1.0104   -2.4364 H   0  0  0  0  0  0  0  0  0  0  0  0
    5.3048    0.5281   -1.4906 H   0  0  0  0  0  0  0  0  0  0  0  0
    1.5244    0.5005    2.9927 H   0  0  0  0  0  0  0  0  0  0  0  0
    2.7014   -0.5547    2.1486 H   0  0  0  0  0  0  0  0  0  0  0  0
    3.8561    1.1811    3.5302 H   0  0  0  0  0  0  0  0  0  0  0  0
    4.2078    1.3900    1.8048 H   0  0  0  0  0  0  0  0  0  0  0  0
    3.0399    2.4514    2.6040 H   0  0  0  0  0  0  0  0  0  0  0  0
   -0.0122   -1.3676    1.4157 H   0  0  0  0  0  0  0  0  0  0  0  0
   -0.0879   -3.0304    0.7235 H   0  0  0  0  0  0  0  0  0  0  0  0
   -5.3262   -1.0770    0.4826 H   0  0  0  0  0  0  0  0  0  0  0  0
   -3.9373   -2.0662   -0.0545 H   0  0  0  0  0  0  0  0  0  0  0  0
   -4.6251   -2.6222    2.2918 H   0  0  0  0  0  0  0  0  0  0  0  0
   -2.9735   -1.9858    2.2247 H   0  0  0  0  0  0  0  0  0  0  0  0
   -4.2903   -0.9492    2.7734 H   0  0  0  0  0  0  0  0  0  0  0  0
   -1.6081    2.1195   -2.3387 H   0  0  0  0  0  0  0  0  0  0  0  0
   -2.5315    0.6043   -2.2012 H   0  0  0  0  0  0  0  0  0  0  0  0
   -3.5416    3.3719   -1.3646 H   0  0  0  0  0  0  0  0  0  0  0  0
   -4.0248    2.5057   -2.8331 H   0  0  0  0  0  0  0  0  0  0  0  0
   -4.4604    1.8670   -1.2365 H   0  0  0  0  0  0  0  0  0  0  0  0
  1  2  1  0  0  0  0
  2  3  1  0  0  0  0
  3  4  2  0  0  0  0
  4  5  2  0  0  0  0
  4  6  2  0  0  0  0
  6  7  1  0  0  0  0
  7  8  1  0  0  0  0
  4  9  1  0  0  0  0
  9 10  1  0  0  0  0
 10 11  1  0  0  0  0
 11 12  1  0  0  0  0
 12 13  2  0  0  0  0
 12 14  2  0  0  0  0
 14 15  1  0  0  0  0
 15 16  1  0  0  0  0
 12 17  2  0  0  0  0
 17 18  1  0  0  0  0
 18 19  1  0  0  0  0
  1 20  1  0  0  0  0
  1 21  1  0  0  0  0
  1 22  1  0  0  0  0
  2 23  1  0  0  0  0
  2 24  1  0  0  0  0
  7 25  1  0  0  0  0
  7 26  1  0  0  0  0
  8 27  1  0  0  0  0
  8 28  1  0  0  0  0
  8 29  1  0  0  0  0
 10 30  1  0  0  0  0
 10 31  1  0  0  0  0
 15 32  1  0  0  0  0
 15 33  1  0  0  0  0
 16 34  1  0  0  0  0
 16 35  1  0  0  0  0
 16 36  1  0  0  0  0
 18 37  1  0  0  0  0
 18 38  1  0  0  0  0
 19 39  1  0  0  0  0
 19 40  1  0  0  0  0
 19 41  1  0  0  0  0
M  END
