 xtb: 6.7.1 (edcfbbe)
          04092505203D

 41 40  0     0  0            999 V2000
    5.3345   -0.3416   -2.2036 C   0  0  0  0  0  0  0  0  0  0  0  0
    3.9370   -0.8000   -1.8398 C   0  0  0  0  0  0  0  0  0  0  0  0
    3.4868   -0.0054   -0.7235 O   0  0  0  0  0  0  0  0  0  0  0  0
    1.9505    0.0668   -0.3294 P   0  0  0  0  0  0  0  0  0  0  0  0
    0.7708    0.5890   -1.8014 S   0  0  0  0  0  0  0  0  0  0  0  0
    1.9192    1.0984    0.8534 O   0  0  0  0  0  0  0  0  0  0  0  0
    2.7542    1.0097    2.0373 C   0  0  0  0  0  0  0  0  0  0  0  0
    4.0106    1.8383    1.8703 C   0  0  0  0  0  0  0  0  0  0  0  0
    1.6661   -1.8585    0.5390 S   0  0  0  0  0  0  0  0  0  0  0  0
   -0.0063   -1.6756    1.2082 C   0  0  0  0  0  0  0  0  0  0  0  0
   -1.3357   -1.8824   -0.0296 S   0  0  0  0  0  0  0  0  0  0  0  0
   -2.2104    0.0371    0.0443 P   0  0  0  0  0  0  0  0  0  0  0  0
   -1.3324    1.3957    1.1604 S   0  0  0  0  0  0  0  0  0  0  0  0
   -3.7300   -0.2199    0.4555 O   0  0  0  0  0  0  0  0  0  0  0  0
   -4.1874   -0.2312    1.8166 C   0  0  0  0  0  0  0  0  0  0  0  0
   -3.6556   -1.4198    2.5923 C   0  0  0  0  0  0  0  0  0  0  0  0
   -2.3847    0.2966   -1.5026 O   0  0  0  0  0  0  0  0  0  0  0  0
   -2.5658    1.6087   -2.0676 C   0  0  0  0  0  0  0  0  0  0  0  0
   -3.8550    2.2573   -1.6098 C   0  0  0  0  0  0  0  0  0  0  0  0
    6.0019   -0.4748   -1.3572 H   0  0  0  0  0  0  0  0  0  0  0  0
    5.6943   -0.9304   -3.0408 H   0  0  0  0  0  0  0  0  0  0  0  0
    5.3218    0.7082   -2.4831 H   0  0  0  0  0  0  0  0  0  0  0  0
    3.9256   -1.8498   -1.5352 H   0  0  0  0  0  0  0  0  0  0  0  0
    3.2379   -0.6597   -2.6710 H   0  0  0  0  0  0  0  0  0  0  0  0
    2.1212    1.3987    2.8374 H   0  0  0  0  0  0  0  0  0  0  0  0
    2.9943   -0.0406    2.2240 H   0  0  0  0  0  0  0  0  0  0  0  0
    3.7494    2.8675    1.6395 H   0  0  0  0  0  0  0  0  0  0  0  0
    4.5775    1.8105    2.7956 H   0  0  0  0  0  0  0  0  0  0  0  0
    4.6188    1.4411    1.0623 H   0  0  0  0  0  0  0  0  0  0  0  0
   -0.1080   -0.6869    1.6654 H   0  0  0  0  0  0  0  0  0  0  0  0
   -0.1101   -2.4717    1.9404 H   0  0  0  0  0  0  0  0  0  0  0  0
   -3.8797    0.7062    2.2916 H   0  0  0  0  0  0  0  0  0  0  0  0
   -5.2739   -0.2632    1.7261 H   0  0  0  0  0  0  0  0  0  0  0  0
   -4.1403   -1.4602    3.5625 H   0  0  0  0  0  0  0  0  0  0  0  0
   -3.8515   -2.3417    2.0506 H   0  0  0  0  0  0  0  0  0  0  0  0
   -2.5813   -1.3167    2.7381 H   0  0  0  0  0  0  0  0  0  0  0  0
   -1.6973    2.2204   -1.8011 H   0  0  0  0  0  0  0  0  0  0  0  0
   -2.5572    1.4267   -3.1433 H   0  0  0  0  0  0  0  0  0  0  0  0
   -4.6963    1.5994   -1.8118 H   0  0  0  0  0  0  0  0  0  0  0  0
   -3.8113    2.4572   -0.5395 H   0  0  0  0  0  0  0  0  0  0  0  0
   -3.9906    3.1955   -2.1388 H   0  0  0  0  0  0  0  0  0  0  0  0
  1  2  1  0  0  0  0
  2  3  1  0  0  0  0
  3  4  2  0  0  0  0
  4  5  2  0  0  0  0
  4  6  2  0  0  0  0
  6  7  1  0  0  0  0
  7  8  1  0  0  0  0
  4  9  1  0  0  0  0
  9 10  1  0  0  0  0
 10 11  1  0  0  0  0
 11 12  1  0  0  0  0
 12 13  2  0  0  0  0
 12 14  2  0  0  0  0
 14 15  1  0  0  0  0
 15 16  1  0  0  0  0
 12 17  2  0  0  0  0
 17 18  1  0  0  0  0
 18 19  1  0  0  0  0
  1 20  1  0  0  0  0
  1 21  1  0  0  0  0
  1 22  1  0  0  0  0
  2 23  1  0  0  0  0
  2 24  1  0  0  0  0
  7 25  1  0  0  0  0
  7 26  1  0  0  0  0
  8 27  1  0  0  0  0
  8 28  1  0  0  0  0
  8 29  1  0  0  0  0
 10 30  1  0  0  0  0
 10 31  1  0  0  0  0
 15 32  1  0  0  0  0
 15 33  1  0  0  0  0
 16 34  1  0  0  0  0
 16 35  1  0  0  0  0
 16 36  1  0  0  0  0
 18 37  1  0  0  0  0
 18 38  1  0  0  0  0
 19 39  1  0  0  0  0
 19 40  1  0  0  0  0
 19 41  1  0  0  0  0
M  END
