  24
 
 C         -3.4328640748       -1.1948998420       -0.0437785117
 C         -2.0461991016       -0.6282622721       -0.0339342991
 C         -1.8710282138        0.7693073994       -0.0148865363
 C         -0.6333919511        1.3553735147        0.0042651191
 C          0.5247366251        0.5298079722        0.0082501063
 C          1.8362290216        1.0506098961        0.0230100013
 C          2.9252977207        0.2232395176        0.0318243474
 C          2.7598218021       -1.1693565709        0.0260093087
 C          1.5039055036       -1.7069744908        0.0073299591
 C          0.3602971971       -0.8808667118       -0.0033852092
 C         -0.9378597320       -1.4308707099       -0.0268233404
 C         -0.5060437573        2.8492520242        0.0166536394
 H         -3.8800879675       -1.0992185990        0.9454770440
 H         -4.0616954449       -0.6545054817       -0.7482713130
 H         -3.4203454292       -2.2473925709       -0.3144942125
 H         -2.7541573372        1.3935229990       -0.0178779363
 H          1.9814404066        2.1194887970        0.0270925177
 H          3.9225530741        0.6382952710        0.0437875321
 H          3.6299762366       -1.8092492365        0.0355493367
 H          1.3649786023       -2.7789995945        0.0012356735
 H         -1.0411650107       -2.5070907665       -0.0397238159
 H          0.0569320442        3.1802395443        0.8879928549
 H          0.0133123282        3.1953139417       -0.8756971379
 H         -1.4888807358        3.3117632513        0.0439311939
          24
        -31.81723634
 C         -3.4416880123       -1.1708931040        0.0002904266
 C         -2.0501425619       -0.6168033317       -0.0000642388
 C         -1.8667514636        0.7801970854       -0.0002808235
 C         -0.6258389125        1.3589805468       -0.0002443154
 C          0.5275785657        0.5265709464       -0.0002140283
 C          1.8418667656        1.0395606660       -0.0001283623
 C          2.9263052995        0.2058168405        0.0000580251
 C          2.7527900471       -1.1854197575        0.0002036461
 C          1.4934638443       -1.7157318310        0.0000186713
 C          0.3548165588       -0.8831994033       -0.0001873858
 C         -0.9469489667       -1.4258442754       -0.0000790602
 C         -0.4894613106        2.8521112295        0.0003380915
 H         -3.9825103472       -0.8302054098       -0.8813806671
 H         -3.4273178037       -2.2574678820        0.0039516249
 H         -3.9843941972       -0.8241815136        0.8784414854
 H         -2.7465838988        1.4089888918       -0.0003303538
 H          1.9936758059        2.1074708086       -0.0001315996
 H          3.9257899954        0.6154921041        0.0002781178
 H          3.6189154546       -1.8307877528        0.0005417933
 H          1.3486224878       -2.7869020603        0.0001066129
 H         -1.0564735407       -2.5014854644        0.0001716489
 H          0.0558054161        3.1876447606       -0.8804312736
 H         -1.4699032642        3.3208844694       -0.0015106263
 H          0.0520709568        3.1868917982        0.8837414229
