 xtb: 6.7.1 (edcfbbe)
          04092505203D

 41 40  0     0  0            999 V2000
    2.6013    0.1581   -2.3779 C   0  0  0  0  0  0  0  0  0  0  0  0
    2.0268    1.2947   -1.5602 C   0  0  0  0  0  0  0  0  0  0  0  0
    1.1865    0.8329   -0.4715 O   0  0  0  0  0  0  0  0  0  0  0  0
    1.7091    0.0559    0.8047 P   0  0  0  0  0  0  0  0  0  0  0  0
    0.7900    0.5780    2.4541 S   0  0  0  0  0  0  0  0  0  0  0  0
    3.2605    0.3929    0.8128 O   0  0  0  0  0  0  0  0  0  0  0  0
    4.0717    0.2100    1.9866 C   0  0  0  0  0  0  0  0  0  0  0  0
    4.2670   -1.2553    2.3159 C   0  0  0  0  0  0  0  0  0  0  0  0
    1.6345   -2.0123    0.2890 S   0  0  0  0  0  0  0  0  0  0  0  0
    0.0105   -2.0819   -0.5176 C   0  0  0  0  0  0  0  0  0  0  0  0
   -1.3396   -1.3505    0.4474 S   0  0  0  0  0  0  0  0  0  0  0  0
   -1.8598    0.2846   -0.8254 P   0  0  0  0  0  0  0  0  0  0  0  0
   -1.1146    0.2514   -2.6305 S   0  0  0  0  0  0  0  0  0  0  0  0
   -1.5286    1.6488   -0.1102 O   0  0  0  0  0  0  0  0  0  0  0  0
   -2.1240    2.0722    1.1415 C   0  0  0  0  0  0  0  0  0  0  0  0
   -1.4982    3.3985    1.5150 C   0  0  0  0  0  0  0  0  0  0  0  0
   -3.4502    0.2919   -0.7078 O   0  0  0  0  0  0  0  0  0  0  0  0
   -4.3174   -0.8418   -0.8951 C   0  0  0  0  0  0  0  0  0  0  0  0
   -4.1111   -1.5333   -2.2265 C   0  0  0  0  0  0  0  0  0  0  0  0
    3.2173   -0.4864   -1.7548 H   0  0  0  0  0  0  0  0  0  0  0  0
    1.8016   -0.4258   -2.8276 H   0  0  0  0  0  0  0  0  0  0  0  0
    3.2137    0.5765   -3.1705 H   0  0  0  0  0  0  0  0  0  0  0  0
    1.3461    1.9067   -2.1546 H   0  0  0  0  0  0  0  0  0  0  0  0
    2.8173    1.9149   -1.1355 H   0  0  0  0  0  0  0  0  0  0  0  0
    5.0138    0.6966    1.7304 H   0  0  0  0  0  0  0  0  0  0  0  0
    3.5957    0.7334    2.8221 H   0  0  0  0  0  0  0  0  0  0  0  0
    4.9600   -1.3474    3.1459 H   0  0  0  0  0  0  0  0  0  0  0  0
    3.3147   -1.7019    2.6003 H   0  0  0  0  0  0  0  0  0  0  0  0
    4.6595   -1.7904    1.4552 H   0  0  0  0  0  0  0  0  0  0  0  0
   -0.2018   -3.1418   -0.6361 H   0  0  0  0  0  0  0  0  0  0  0  0
    0.0474   -1.5749   -1.4867 H   0  0  0  0  0  0  0  0  0  0  0  0
   -3.2018    2.1599    0.9935 H   0  0  0  0  0  0  0  0  0  0  0  0
   -1.9176    1.3122    1.9008 H   0  0  0  0  0  0  0  0  0  0  0  0
   -1.9623    3.7654    2.4245 H   0  0  0  0  0  0  0  0  0  0  0  0
   -0.4330    3.2673    1.6883 H   0  0  0  0  0  0  0  0  0  0  0  0
   -1.6415    4.1182    0.7141 H   0  0  0  0  0  0  0  0  0  0  0  0
   -4.1529   -1.5369   -0.0670 H   0  0  0  0  0  0  0  0  0  0  0  0
   -5.3172   -0.4101   -0.8219 H   0  0  0  0  0  0  0  0  0  0  0  0
   -4.2020   -0.8208   -3.0429 H   0  0  0  0  0  0  0  0  0  0  0  0
   -3.1196   -1.9813   -2.2708 H   0  0  0  0  0  0  0  0  0  0  0  0
   -4.8575   -2.3123   -2.3440 H   0  0  0  0  0  0  0  0  0  0  0  0
  1  2  1  0  0  0  0
  2  3  1  0  0  0  0
  3  4  2  0  0  0  0
  4  5  2  0  0  0  0
  4  6  2  0  0  0  0
  6  7  1  0  0  0  0
  7  8  1  0  0  0  0
  4  9  1  0  0  0  0
  9 10  1  0  0  0  0
 10 11  1  0  0  0  0
 11 12  1  0  0  0  0
 12 13  2  0  0  0  0
 12 14  2  0  0  0  0
 14 15  1  0  0  0  0
 15 16  1  0  0  0  0
 12 17  2  0  0  0  0
 17 18  1  0  0  0  0
 18 19  1  0  0  0  0
  1 20  1  0  0  0  0
  1 21  1  0  0  0  0
  1 22  1  0  0  0  0
  2 23  1  0  0  0  0
  2 24  1  0  0  0  0
  7 25  1  0  0  0  0
  7 26  1  0  0  0  0
  8 27  1  0  0  0  0
  8 28  1  0  0  0  0
  8 29  1  0  0  0  0
 10 30  1  0  0  0  0
 10 31  1  0  0  0  0
 15 32  1  0  0  0  0
 15 33  1  0  0  0  0
 16 34  1  0  0  0  0
 16 35  1  0  0  0  0
 16 36  1  0  0  0  0
 18 37  1  0  0  0  0
 18 38  1  0  0  0  0
 19 39  1  0  0  0  0
 19 40  1  0  0  0  0
 19 41  1  0  0  0  0
M  END
