20
 xtb: 6.7.1 (edcfbbe)
C            0.62286980882368        1.70888578528217       -0.03237019237030
C            1.39314593204362        0.41591775115393       -0.26885402984739
H            1.60109649426632        0.29733546580924       -1.34220325180271
C            0.56828206834319       -0.77103079771396        0.20542511442065
H            0.43584238180952       -0.69762896041062        1.29710064260618
C           -0.79510552754673       -0.74583207170675       -0.47827939946571
H           -0.64909089146332       -0.89687818033538       -1.55366336351007
C           -1.48395588285186        0.61238468370559       -0.29335362350190
H           -2.36908902361988        0.67572592414954       -0.93595445919349
O           -0.64125099568327        1.67474709448444       -0.72324282924330
O           -1.84740545930310        0.73064093042957        1.06972339118197
O           -1.63972824465209       -1.80955425290125       -0.04216907271542
O            1.19550816070507       -2.01481589505001       -0.12842081744865
O            2.61674976852001        0.41541914426064        0.47954932179318
H            1.16861059709360        2.56315286102521       -0.44091234692230
H            0.47362348761082        1.86519032804247        1.04417146579413
H           -2.52277658477194        1.41879440916201        1.14039830578010
H           -1.83938128957221       -1.65329894081020        0.89205649586153
H            2.05591687677274       -2.02368342338803        0.31173928986394
H            3.23510229408451        1.00844010708673        0.03310030578262
