 xtb: 6.7.1 (edcfbbe)
          04032519413D

 19 19  0     0  0            999 V2000
   -2.5473   -0.7118   -0.0016 C   0  0  0  0  0  0  0  0  0  0  0  0
   -1.2146   -0.0125   -0.0005 C   0  0  0  0  0  0  0  0  0  0  0  0
   -1.2056    1.3792    0.0006 C   0  0  0  0  0  0  0  0  0  0  0  0
   -0.0254    2.0935    0.0010 C   0  0  0  0  0  0  0  0  0  0  0  0
    1.1827    1.4162   -0.0005 C   0  0  0  0  0  0  0  0  0  0  0  0
    1.2160    0.0339   -0.0010 C   0  0  0  0  0  0  0  0  0  0  0  0
    0.0098   -0.6810    0.0002 C   0  0  0  0  0  0  0  0  0  0  0  0
    0.1251   -2.0427    0.0021 O   0  0  0  0  0  0  0  0  0  0  0  0
    2.5066   -0.7265   -0.0010 C   0  0  0  0  0  0  0  0  0  0  0  0
   -3.1222   -0.4015   -0.8729 H   0  0  0  0  0  0  0  0  0  0  0  0
   -2.4699   -1.7955   -0.0203 H   0  0  0  0  0  0  0  0  0  0  0  0
   -3.1099   -0.4300    0.8873 H   0  0  0  0  0  0  0  0  0  0  0  0
   -2.1512    1.9015    0.0010 H   0  0  0  0  0  0  0  0  0  0  0  0
   -0.0429    3.1727    0.0020 H   0  0  0  0  0  0  0  0  0  0  0  0
    2.1120    1.9663   -0.0012 H   0  0  0  0  0  0  0  0  0  0  0  0
   -0.7476   -2.4606    0.0062 H   0  0  0  0  0  0  0  0  0  0  0  0
    2.5752   -1.3447    0.8931 H   0  0  0  0  0  0  0  0  0  0  0  0
    2.5458   -1.3951   -0.8596 H   0  0  0  0  0  0  0  0  0  0  0  0
    3.3543   -0.0485   -0.0338 H   0  0  0  0  0  0  0  0  0  0  0  0
  1  2  1  0  0  0  0
  2  3  4  0  0  0  0
  3  4  4  0  0  0  0
  4  5  4  0  0  0  0
  5  6  4  0  0  0  0
  2  7  4  0  0  0  0
  6  7  4  0  0  0  0
  7  8  1  0  0  0  0
  6  9  1  0  0  0  0
  1 10  1  0  0  0  0
  1 11  1  0  0  0  0
  1 12  1  0  0  0  0
  3 13  1  0  0  0  0
  4 14  1  0  0  0  0
  5 15  1  0  0  0  0
  8 16  1  0  0  0  0
  9 17  1  0  0  0  0
  9 18  1  0  0  0  0
  9 19  1  0  0  0  0
M  END
