 xtb: 6.7.1 (edcfbbe)
          04092505203D

 41 40  0     0  0            999 V2000
    4.9229    0.8100   -1.1688 C   0  0  0  0  0  0  0  0  0  0  0  0
    4.6706    0.8174    0.3246 C   0  0  0  0  0  0  0  0  0  0  0  0
    3.5711   -0.0324    0.6976 O   0  0  0  0  0  0  0  0  0  0  0  0
    2.0686    0.2903    0.2958 P   0  0  0  0  0  0  0  0  0  0  0  0
    1.5747    2.1833    0.3764 S   0  0  0  0  0  0  0  0  0  0  0  0
    1.2496   -0.6011    1.3116 O   0  0  0  0  0  0  0  0  0  0  0  0
    1.6856   -1.8577    1.8850 C   0  0  0  0  0  0  0  0  0  0  0  0
    1.9629   -2.9237    0.8462 C   0  0  0  0  0  0  0  0  0  0  0  0
    1.8427   -0.5822   -1.6365 S   0  0  0  0  0  0  0  0  0  0  0  0
    0.1022   -0.1920   -1.8817 C   0  0  0  0  0  0  0  0  0  0  0  0
   -0.9943   -1.4033   -1.0385 S   0  0  0  0  0  0  0  0  0  0  0  0
   -2.2732   -0.1090   -0.0079 P   0  0  0  0  0  0  0  0  0  0  0  0
   -3.7018   -0.9365    1.0437 S   0  0  0  0  0  0  0  0  0  0  0  0
   -2.7926    0.9677   -1.0732 O   0  0  0  0  0  0  0  0  0  0  0  0
   -4.0262    0.7894   -1.7888 C   0  0  0  0  0  0  0  0  0  0  0  0
   -3.9127   -0.2891   -2.8475 C   0  0  0  0  0  0  0  0  0  0  0  0
   -1.2006    0.7573    0.7771 O   0  0  0  0  0  0  0  0  0  0  0  0
   -1.6180    1.7244    1.7659 C   0  0  0  0  0  0  0  0  0  0  0  0
   -1.4322    1.1588    3.1584 C   0  0  0  0  0  0  0  0  0  0  0  0
    4.0987    1.2944   -1.6894 H   0  0  0  0  0  0  0  0  0  0  0  0
    5.8386    1.3537   -1.3782 H   0  0  0  0  0  0  0  0  0  0  0  0
    5.0165   -0.2094   -1.5340 H   0  0  0  0  0  0  0  0  0  0  0  0
    4.4569    1.8323    0.6738 H   0  0  0  0  0  0  0  0  0  0  0  0
    5.5150    0.4041    0.8783 H   0  0  0  0  0  0  0  0  0  0  0  0
    2.5730   -1.6617    2.4900 H   0  0  0  0  0  0  0  0  0  0  0  0
    0.8497   -2.1376    2.5293 H   0  0  0  0  0  0  0  0  0  0  0  0
    2.1910   -3.8548    1.3559 H   0  0  0  0  0  0  0  0  0  0  0  0
    1.0937   -3.0730    0.2089 H   0  0  0  0  0  0  0  0  0  0  0  0
    2.8125   -2.6411    0.2285 H   0  0  0  0  0  0  0  0  0  0  0  0
   -0.0825   -0.2623   -2.9499 H   0  0  0  0  0  0  0  0  0  0  0  0
   -0.1080    0.8058   -1.4977 H   0  0  0  0  0  0  0  0  0  0  0  0
   -4.8105    0.5382   -1.0673 H   0  0  0  0  0  0  0  0  0  0  0  0
   -4.2225    1.7692   -2.2263 H   0  0  0  0  0  0  0  0  0  0  0  0
   -3.7252   -1.2535   -2.3761 H   0  0  0  0  0  0  0  0  0  0  0  0
   -4.8439   -0.3444   -3.4021 H   0  0  0  0  0  0  0  0  0  0  0  0
   -3.0996   -0.0656   -3.5332 H   0  0  0  0  0  0  0  0  0  0  0  0
   -0.9754    2.5914    1.5971 H   0  0  0  0  0  0  0  0  0  0  0  0
   -2.6610    1.9976    1.5833 H   0  0  0  0  0  0  0  0  0  0  0  0
   -2.0770    0.2939    3.3012 H   0  0  0  0  0  0  0  0  0  0  0  0
   -0.3970    0.8552    3.2933 H   0  0  0  0  0  0  0  0  0  0  0  0
   -1.6840    1.9191    3.8906 H   0  0  0  0  0  0  0  0  0  0  0  0
  1  2  1  0  0  0  0
  2  3  1  0  0  0  0
  3  4  2  0  0  0  0
  4  5  2  0  0  0  0
  4  6  2  0  0  0  0
  6  7  1  0  0  0  0
  7  8  1  0  0  0  0
  4  9  1  0  0  0  0
  9 10  1  0  0  0  0
 10 11  1  0  0  0  0
 11 12  1  0  0  0  0
 12 13  2  0  0  0  0
 12 14  1  0  0  0  0
 14 15  1  0  0  0  0
 15 16  1  0  0  0  0
 12 17  1  0  0  0  0
 17 18  1  0  0  0  0
 18 19  1  0  0  0  0
  1 20  1  0  0  0  0
  1 21  1  0  0  0  0
  1 22  1  0  0  0  0
  2 23  1  0  0  0  0
  2 24  1  0  0  0  0
  7 25  1  0  0  0  0
  7 26  1  0  0  0  0
  8 27  1  0  0  0  0
  8 28  1  0  0  0  0
  8 29  1  0  0  0  0
 10 30  1  0  0  0  0
 10 31  1  0  0  0  0
 15 32  1  0  0  0  0
 15 33  1  0  0  0  0
 16 34  1  0  0  0  0
 16 35  1  0  0  0  0
 16 36  1  0  0  0  0
 18 37  1  0  0  0  0
 18 38  1  0  0  0  0
 19 39  1  0  0  0  0
 19 40  1  0  0  0  0
 19 41  1  0  0  0  0
M  END
