  21
 
 C          1.6228022981       -0.9739254514       -0.9871695737
 C          1.2454243830       -0.1441522431        0.2379834770
 H          1.1244153021       -0.8116919530        1.1057137069
 C         -0.0388193862        0.6659533523        0.0324148335
 C         -1.3095013176       -0.1415299044       -0.2463731330
 C         -1.6533382818       -1.0862331194        0.9032947703
 C         -2.4702089199        0.8226798917       -0.4909162367
 O          2.2558982669        0.8105341958        0.5420839214
 H          1.7035353236       -0.3309502524       -1.8603737066
 H          2.5782567454       -1.4697508585       -0.8281473411
 H          0.8712005511       -1.7345093330       -1.1729088216
 H         -0.1854391164        1.2721569235        0.9295792921
 H          0.1421549157        1.3543291506       -0.7963838742
 H         -1.1627414462       -0.7328627737       -1.1555645379
 H         -2.6067358850       -1.5738981014        0.7142339746
 H         -1.7298715271       -0.5328451716        1.8365211635
 H         -0.8966406640       -1.8571894608        1.0195035682
 H         -3.3774084945        0.2734732086       -0.7307106599
 H         -2.6560594903        1.4232874865        0.3966878043
 H         -2.2454835274        1.4927247081       -1.3170992539
 H          3.1053670206        0.3574253925        0.6265874948
          21
        -24.06458948
 C          2.4639965033        0.0257403158       -0.9074861081
 C          1.2604761185       -0.2719245643       -0.0121335180
 H          1.1282637167       -1.3562912646        0.0641492960
 C         -0.0116319244        0.3714436031       -0.5801351823
 C         -1.2743834499        0.0355388088        0.2229876683
 C         -2.3900181859        1.0243917640       -0.1112302474
 C         -1.7462176430       -1.3906984208       -0.0514543922
 O          1.4997610760        0.1402479336        1.3228158880
 H          2.3228070893       -0.4258911390       -1.8846651551
 H          2.5866754997        1.0997029135       -1.0326542538
 H          3.3674946045       -0.3807764715       -0.4596293725
 H          0.1294944291        1.4555970321       -0.5850750494
 H         -0.1377248243        0.0459163948       -1.6136462298
 H         -1.0310502215        0.1227594186        1.2879585146
 H         -2.6315866339        0.9746624236       -1.1709373413
 H         -2.0909661071        2.0425449514        0.1269197867
 H         -3.2872189994        0.7903994344        0.4567193207
 H         -0.9792220090       -2.1132286085        0.2144311973
 H         -2.6359804605       -1.6120499935        0.5332877817
 H         -1.9877802296       -1.5132374632       -1.1053394910
 H          1.6717779558        1.0926126073        1.3238484004
