 xtb: 6.7.1 (edcfbbe)
          04092505203D

 41 40  0     0  0            999 V2000
    4.4281   -1.8340   -0.7431 C   0  0  0  0  0  0  0  0  0  0  0  0
    4.6242   -0.3531   -0.4893 C   0  0  0  0  0  0  0  0  0  0  0  0
    3.5734    0.2068    0.3156 O   0  0  0  0  0  0  0  0  0  0  0  0
    2.0738    0.3369   -0.2003 P   0  0  0  0  0  0  0  0  0  0  0  0
    1.9086    0.8087   -2.0986 S   0  0  0  0  0  0  0  0  0  0  0  0
    1.4854    1.3436    0.8755 O   0  0  0  0  0  0  0  0  0  0  0  0
    1.5033    2.7715    0.6842 C   0  0  0  0  0  0  0  0  0  0  0  0
    2.9106    3.3242    0.6172 C   0  0  0  0  0  0  0  0  0  0  0  0
    1.1797   -1.4587    0.4541 S   0  0  0  0  0  0  0  0  0  0  0  0
   -0.0157   -1.7558   -0.9022 C   0  0  0  0  0  0  0  0  0  0  0  0
   -1.6756   -2.1375   -0.2998 S   0  0  0  0  0  0  0  0  0  0  0  0
   -2.3485   -0.1914    0.2399 P   0  0  0  0  0  0  0  0  0  0  0  0
   -1.3980    1.3079   -0.6074 S   0  0  0  0  0  0  0  0  0  0  0  0
   -2.4113   -0.1751    1.8217 O   0  0  0  0  0  0  0  0  0  0  0  0
   -1.2397   -0.1518    2.6583 C   0  0  0  0  0  0  0  0  0  0  0  0
   -1.6726    0.2874    4.0424 C   0  0  0  0  0  0  0  0  0  0  0  0
   -3.9106   -0.2265    0.0284 O   0  0  0  0  0  0  0  0  0  0  0  0
   -4.5225    0.1496   -1.2193 C   0  0  0  0  0  0  0  0  0  0  0  0
   -4.2057   -0.8289   -2.3326 C   0  0  0  0  0  0  0  0  0  0  0  0
    4.2732   -2.3617    0.1946 H   0  0  0  0  0  0  0  0  0  0  0  0
    3.5598   -1.9881   -1.3826 H   0  0  0  0  0  0  0  0  0  0  0  0
    5.3063   -2.2315   -1.2417 H   0  0  0  0  0  0  0  0  0  0  0  0
    4.6618    0.1947   -1.4365 H   0  0  0  0  0  0  0  0  0  0  0  0
    5.5280   -0.1592    0.0897 H   0  0  0  0  0  0  0  0  0  0  0  0
    0.9447    3.0009   -0.2298 H   0  0  0  0  0  0  0  0  0  0  0  0
    0.9567    3.1561    1.5468 H   0  0  0  0  0  0  0  0  0  0  0  0
    2.8676    4.4083    0.5821 H   0  0  0  0  0  0  0  0  0  0  0  0
    3.4783    3.0091    1.4890 H   0  0  0  0  0  0  0  0  0  0  0  0
    3.4093    2.9613   -0.2808 H   0  0  0  0  0  0  0  0  0  0  0  0
    0.3061   -2.6345   -1.4545 H   0  0  0  0  0  0  0  0  0  0  0  0
   -0.0377   -0.8700   -1.5423 H   0  0  0  0  0  0  0  0  0  0  0  0
   -0.8064   -1.1568    2.6778 H   0  0  0  0  0  0  0  0  0  0  0  0
   -0.5057    0.5410    2.2315 H   0  0  0  0  0  0  0  0  0  0  0  0
   -2.4191   -0.4001    4.4289 H   0  0  0  0  0  0  0  0  0  0  0  0
   -0.8097    0.2928    4.7002 H   0  0  0  0  0  0  0  0  0  0  0  0
   -2.1019    1.2845    4.0005 H   0  0  0  0  0  0  0  0  0  0  0  0
   -5.5886    0.1660   -0.9891 H   0  0  0  0  0  0  0  0  0  0  0  0
   -4.1847    1.1569   -1.4837 H   0  0  0  0  0  0  0  0  0  0  0  0
   -3.1502   -0.7676   -2.5949 H   0  0  0  0  0  0  0  0  0  0  0  0
   -4.4318   -1.8445   -2.0180 H   0  0  0  0  0  0  0  0  0  0  0  0
   -4.7985   -0.5805   -3.2072 H   0  0  0  0  0  0  0  0  0  0  0  0
  1  2  1  0  0  0  0
  2  3  1  0  0  0  0
  3  4  2  0  0  0  0
  4  5  2  0  0  0  0
  4  6  2  0  0  0  0
  6  7  1  0  0  0  0
  7  8  1  0  0  0  0
  4  9  1  0  0  0  0
  9 10  1  0  0  0  0
 10 11  1  0  0  0  0
 11 12  1  0  0  0  0
 12 13  2  0  0  0  0
 12 14  2  0  0  0  0
 14 15  1  0  0  0  0
 15 16  1  0  0  0  0
 12 17  2  0  0  0  0
 17 18  1  0  0  0  0
 18 19  1  0  0  0  0
  1 20  1  0  0  0  0
  1 21  1  0  0  0  0
  1 22  1  0  0  0  0
  2 23  1  0  0  0  0
  2 24  1  0  0  0  0
  7 25  1  0  0  0  0
  7 26  1  0  0  0  0
  8 27  1  0  0  0  0
  8 28  1  0  0  0  0
  8 29  1  0  0  0  0
 10 30  1  0  0  0  0
 10 31  1  0  0  0  0
 15 32  1  0  0  0  0
 15 33  1  0  0  0  0
 16 34  1  0  0  0  0
 16 35  1  0  0  0  0
 16 36  1  0  0  0  0
 18 37  1  0  0  0  0
 18 38  1  0  0  0  0
 19 39  1  0  0  0  0
 19 40  1  0  0  0  0
 19 41  1  0  0  0  0
M  END
