 xtb: 6.7.1 (edcfbbe)
          04092505213D

 41 40  0     0  0            999 V2000
    2.5798   -2.8640   -2.2768 C   0  0  0  0  0  0  0  0  0  0  0  0
    2.9577   -2.6595   -0.8239 C   0  0  0  0  0  0  0  0  0  0  0  0
    3.4289   -1.3069   -0.5935 O   0  0  0  0  0  0  0  0  0  0  0  0
    2.5124   -0.1398   -0.0444 P   0  0  0  0  0  0  0  0  0  0  0  0
    3.5429    1.4746    0.3377 S   0  0  0  0  0  0  0  0  0  0  0  0
    1.6941   -0.7492    1.1937 O   0  0  0  0  0  0  0  0  0  0  0  0
    2.0988   -0.5197    2.5557 C   0  0  0  0  0  0  0  0  0  0  0  0
    3.3245   -1.3372    2.9087 C   0  0  0  0  0  0  0  0  0  0  0  0
    0.9422    0.0501   -1.4471 S   0  0  0  0  0  0  0  0  0  0  0  0
    0.3200    1.6370   -0.8388 C   0  0  0  0  0  0  0  0  0  0  0  0
   -0.5311    1.5109    0.7591 S   0  0  0  0  0  0  0  0  0  0  0  0
   -2.3559    0.6811    0.0556 P   0  0  0  0  0  0  0  0  0  0  0  0
   -2.7348    0.8720   -1.8629 S   0  0  0  0  0  0  0  0  0  0  0  0
   -3.3515    1.4556    1.0086 O   0  0  0  0  0  0  0  0  0  0  0  0
   -4.7396    1.6491    0.6698 C   0  0  0  0  0  0  0  0  0  0  0  0
   -5.5165    0.3518    0.7489 C   0  0  0  0  0  0  0  0  0  0  0  0
   -2.4375   -0.7783    0.6859 O   0  0  0  0  0  0  0  0  0  0  0  0
   -1.5547   -1.8816    0.4219 C   0  0  0  0  0  0  0  0  0  0  0  0
   -1.7300   -2.4510   -0.9723 C   0  0  0  0  0  0  0  0  0  0  0  0
    3.4152   -2.5996   -2.9189 H   0  0  0  0  0  0  0  0  0  0  0  0
    2.3252   -3.9076   -2.4330 H   0  0  0  0  0  0  0  0  0  0  0  0
    1.7259   -2.2445   -2.5431 H   0  0  0  0  0  0  0  0  0  0  0  0
    3.8064   -3.2868   -0.5456 H   0  0  0  0  0  0  0  0  0  0  0  0
    2.1127   -2.8597   -0.1610 H   0  0  0  0  0  0  0  0  0  0  0  0
    2.2939    0.5493    2.6853 H   0  0  0  0  0  0  0  0  0  0  0  0
    1.2285   -0.8074    3.1471 H   0  0  0  0  0  0  0  0  0  0  0  0
    4.1603   -1.0330    2.2787 H   0  0  0  0  0  0  0  0  0  0  0  0
    3.5860   -1.1634    3.9477 H   0  0  0  0  0  0  0  0  0  0  0  0
    3.1332   -2.3963    2.7574 H   0  0  0  0  0  0  0  0  0  0  0  0
   -0.3732    2.0066   -1.5944 H   0  0  0  0  0  0  0  0  0  0  0  0
    1.1587    2.3182   -0.6955 H   0  0  0  0  0  0  0  0  0  0  0  0
   -5.0889    2.3794    1.4006 H   0  0  0  0  0  0  0  0  0  0  0  0
   -4.7972    2.0734   -0.3379 H   0  0  0  0  0  0  0  0  0  0  0  0
   -5.3937   -0.0999    1.7296 H   0  0  0  0  0  0  0  0  0  0  0  0
   -6.5685    0.5482    0.5676 H   0  0  0  0  0  0  0  0  0  0  0  0
   -5.1481   -0.3414   -0.0063 H   0  0  0  0  0  0  0  0  0  0  0  0
   -0.5230   -1.5558    0.5846 H   0  0  0  0  0  0  0  0  0  0  0  0
   -1.8299   -2.6129    1.1847 H   0  0  0  0  0  0  0  0  0  0  0  0
   -1.4167   -1.7294   -1.7239 H   0  0  0  0  0  0  0  0  0  0  0  0
   -1.1236   -3.3456   -1.0708 H   0  0  0  0  0  0  0  0  0  0  0  0
   -2.7725   -2.7043   -1.1461 H   0  0  0  0  0  0  0  0  0  0  0  0
  1  2  1  0  0  0  0
  2  3  1  0  0  0  0
  3  4  2  0  0  0  0
  4  5  2  0  0  0  0
  4  6  1  0  0  0  0
  6  7  1  0  0  0  0
  7  8  1  0  0  0  0
  4  9  1  0  0  0  0
  9 10  1  0  0  0  0
 10 11  1  0  0  0  0
 11 12  1  0  0  0  0
 12 13  2  0  0  0  0
 12 14  2  0  0  0  0
 14 15  1  0  0  0  0
 15 16  1  0  0  0  0
 12 17  2  0  0  0  0
 17 18  1  0  0  0  0
 18 19  1  0  0  0  0
  1 20  1  0  0  0  0
  1 21  1  0  0  0  0
  1 22  1  0  0  0  0
  2 23  1  0  0  0  0
  2 24  1  0  0  0  0
  7 25  1  0  0  0  0
  7 26  1  0  0  0  0
  8 27  1  0  0  0  0
  8 28  1  0  0  0  0
  8 29  1  0  0  0  0
 10 30  1  0  0  0  0
 10 31  1  0  0  0  0
 15 32  1  0  0  0  0
 15 33  1  0  0  0  0
 16 34  1  0  0  0  0
 16 35  1  0  0  0  0
 16 36  1  0  0  0  0
 18 37  1  0  0  0  0
 18 38  1  0  0  0  0
 19 39  1  0  0  0  0
 19 40  1  0  0  0  0
 19 41  1  0  0  0  0
M  END
