 xtb: 6.7.1 (edcfbbe)
          04092505213D

 41 40  0     0  0            999 V2000
    2.9384   -3.2124    0.2671 C   0  0  0  0  0  0  0  0  0  0  0  0
    3.1758   -2.2893   -0.9109 C   0  0  0  0  0  0  0  0  0  0  0  0
    3.3764   -0.9196   -0.4863 O   0  0  0  0  0  0  0  0  0  0  0  0
    2.2289    0.1293   -0.1931 P   0  0  0  0  0  0  0  0  0  0  0  0
    2.9619    1.9218    0.0476 S   0  0  0  0  0  0  0  0  0  0  0  0
    1.3617   -0.4356    1.0300 O   0  0  0  0  0  0  0  0  0  0  0  0
    1.4540    0.1121    2.3570 C   0  0  0  0  0  0  0  0  0  0  0  0
    2.7342   -0.3227    3.0404 C   0  0  0  0  0  0  0  0  0  0  0  0
    0.8613   -0.1756   -1.7905 S   0  0  0  0  0  0  0  0  0  0  0  0
    0.0768    1.4531   -1.6775 C   0  0  0  0  0  0  0  0  0  0  0  0
   -0.7449    1.7393   -0.0970 S   0  0  0  0  0  0  0  0  0  0  0  0
   -2.3616    0.3537   -0.3401 P   0  0  0  0  0  0  0  0  0  0  0  0
   -2.8766    0.0265   -2.1983 S   0  0  0  0  0  0  0  0  0  0  0  0
   -3.5312    0.9864    0.5015 O   0  0  0  0  0  0  0  0  0  0  0  0
   -3.6723    0.9305    1.9430 C   0  0  0  0  0  0  0  0  0  0  0  0
   -2.5325    1.6182    2.6625 C   0  0  0  0  0  0  0  0  0  0  0  0
   -1.9815   -0.9393    0.5081 O   0  0  0  0  0  0  0  0  0  0  0  0
   -1.4021   -2.1351   -0.0441 C   0  0  0  0  0  0  0  0  0  0  0  0
   -2.1438   -3.3333    0.5139 C   0  0  0  0  0  0  0  0  0  0  0  0
    2.8721   -4.2341   -0.0937 H   0  0  0  0  0  0  0  0  0  0  0  0
    3.7621   -3.1351    0.9719 H   0  0  0  0  0  0  0  0  0  0  0  0
    2.0124   -2.9542    0.7736 H   0  0  0  0  0  0  0  0  0  0  0  0
    2.3403   -2.3194   -1.6162 H   0  0  0  0  0  0  0  0  0  0  0  0
    4.1024   -2.5379   -1.4311 H   0  0  0  0  0  0  0  0  0  0  0  0
    1.3999    1.2033    2.2901 H   0  0  0  0  0  0  0  0  0  0  0  0
    0.5703   -0.2727    2.8691 H   0  0  0  0  0  0  0  0  0  0  0  0
    3.5905    0.0359    2.4695 H   0  0  0  0  0  0  0  0  0  0  0  0
    2.7724    0.1022    4.0384 H   0  0  0  0  0  0  0  0  0  0  0  0
    2.7824   -1.4062    3.1069 H   0  0  0  0  0  0  0  0  0  0  0  0
   -0.6537    1.4956   -2.4855 H   0  0  0  0  0  0  0  0  0  0  0  0
    0.8342    2.2297   -1.7781 H   0  0  0  0  0  0  0  0  0  0  0  0
   -4.6233    1.4360    2.1172 H   0  0  0  0  0  0  0  0  0  0  0  0
   -3.7465   -0.1177    2.2381 H   0  0  0  0  0  0  0  0  0  0  0  0
   -1.5986    1.0920    2.4749 H   0  0  0  0  0  0  0  0  0  0  0  0
   -2.4267    2.6435    2.3165 H   0  0  0  0  0  0  0  0  0  0  0  0
   -2.7319    1.6186    3.7295 H   0  0  0  0  0  0  0  0  0  0  0  0
   -1.4753   -2.0978   -1.1362 H   0  0  0  0  0  0  0  0  0  0  0  0
   -0.3488   -2.1455    0.2455 H   0  0  0  0  0  0  0  0  0  0  0  0
   -3.1859   -3.3025    0.2059 H   0  0  0  0  0  0  0  0  0  0  0  0
   -1.6876   -4.2407    0.1321 H   0  0  0  0  0  0  0  0  0  0  0  0
   -2.0949   -3.3341    1.5990 H   0  0  0  0  0  0  0  0  0  0  0  0
  1  2  1  0  0  0  0
  2  3  1  0  0  0  0
  3  4  2  0  0  0  0
  4  5  2  0  0  0  0
  4  6  1  0  0  0  0
  6  7  1  0  0  0  0
  7  8  1  0  0  0  0
  4  9  1  0  0  0  0
  9 10  1  0  0  0  0
 10 11  1  0  0  0  0
 11 12  1  0  0  0  0
 12 13  2  0  0  0  0
 12 14  2  0  0  0  0
 14 15  1  0  0  0  0
 15 16  1  0  0  0  0
 12 17  2  0  0  0  0
 17 18  1  0  0  0  0
 18 19  1  0  0  0  0
  1 20  1  0  0  0  0
  1 21  1  0  0  0  0
  1 22  1  0  0  0  0
  2 23  1  0  0  0  0
  2 24  1  0  0  0  0
  7 25  1  0  0  0  0
  7 26  1  0  0  0  0
  8 27  1  0  0  0  0
  8 28  1  0  0  0  0
  8 29  1  0  0  0  0
 10 30  1  0  0  0  0
 10 31  1  0  0  0  0
 15 32  1  0  0  0  0
 15 33  1  0  0  0  0
 16 34  1  0  0  0  0
 16 35  1  0  0  0  0
 16 36  1  0  0  0  0
 18 37  1  0  0  0  0
 18 38  1  0  0  0  0
 19 39  1  0  0  0  0
 19 40  1  0  0  0  0
 19 41  1  0  0  0  0
M  END
