 xtb: 6.7.1 (edcfbbe)
          04092507313D

 38 37  0     0  0            999 V2000
    2.2513   -3.9293   -0.7274 C   0  0  0  0  0  0  0  0  0  0  0  0
    2.7446   -3.2412    0.5356 C   0  0  0  0  0  0  0  0  0  0  0  0
    2.8140   -1.8148    0.3395 O   0  0  0  0  0  0  0  0  0  0  0  0
    1.7389   -1.0948    0.5554 C   0  0  0  0  0  0  0  0  0  0  0  0
    0.6860   -1.5504    0.9639 O   0  0  0  0  0  0  0  0  0  0  0  0
    1.9618    0.3667    0.2412 C   0  0  0  0  0  0  0  0  0  0  0  0
    0.7055    0.9520   -0.3833 C   0  0  0  0  0  0  0  0  0  0  0  0
    0.3637    0.3460   -1.2317 H   0  0  0  0  0  0  0  0  0  0  0  0
    0.8241    2.3970   -0.8421 C   0  0  0  0  0  0  0  0  0  0  0  0
    0.0414    2.8934   -1.6206 O   0  0  0  0  0  0  0  0  0  0  0  0
    1.8390    3.0135   -0.2860 O   0  0  0  0  0  0  0  0  0  0  0  0
    2.0180    4.4192   -0.5589 C   0  0  0  0  0  0  0  0  0  0  0  0
    1.1924    5.2602    0.4010 C   0  0  0  0  0  0  0  0  0  0  0  0
   -0.6959    0.9783    0.8143 S   0  0  0  0  0  0  0  0  0  0  0  0
   -1.7225   -0.7764    0.1913 P   0  0  0  0  0  0  0  0  0  0  0  0
   -1.1250   -1.7162   -1.4296 S   0  0  0  0  0  0  0  0  0  0  0  0
   -2.0794   -1.6241    1.4752 O   0  0  0  0  0  0  0  0  0  0  0  0
   -1.6025   -2.9398    1.7690 C   0  0  0  0  0  0  0  0  0  0  0  0
   -3.2080   -0.1913    0.0199 O   0  0  0  0  0  0  0  0  0  0  0  0
   -3.5049    0.7229   -1.0360 C   0  0  0  0  0  0  0  0  0  0  0  0
    2.2176   -5.0014   -0.5652 H   0  0  0  0  0  0  0  0  0  0  0  0
    1.2524   -3.5797   -0.9846 H   0  0  0  0  0  0  0  0  0  0  0  0
    2.9168   -3.7123   -1.5580 H   0  0  0  0  0  0  0  0  0  0  0  0
    3.7663   -3.5343    0.7760 H   0  0  0  0  0  0  0  0  0  0  0  0
    2.0778   -3.4485    1.3769 H   0  0  0  0  0  0  0  0  0  0  0  0
    2.8079    0.4577   -0.4395 H   0  0  0  0  0  0  0  0  0  0  0  0
    2.1945    0.8968    1.1670 H   0  0  0  0  0  0  0  0  0  0  0  0
    3.0858    4.5877   -0.4217 H   0  0  0  0  0  0  0  0  0  0  0  0
    1.7270    4.6134   -1.5947 H   0  0  0  0  0  0  0  0  0  0  0  0
    1.3825    6.3115    0.2121 H   0  0  0  0  0  0  0  0  0  0  0  0
    0.1331    5.0601    0.2559 H   0  0  0  0  0  0  0  0  0  0  0  0
    1.4564    5.0255    1.4282 H   0  0  0  0  0  0  0  0  0  0  0  0
   -1.2390   -3.4262    0.8628 H   0  0  0  0  0  0  0  0  0  0  0  0
   -2.4517   -3.4834    2.1776 H   0  0  0  0  0  0  0  0  0  0  0  0
   -0.7978   -2.8693    2.4980 H   0  0  0  0  0  0  0  0  0  0  0  0
   -2.8974    1.6265   -0.9483 H   0  0  0  0  0  0  0  0  0  0  0  0
   -4.5591    0.9631   -0.9284 H   0  0  0  0  0  0  0  0  0  0  0  0
   -3.3169    0.2523   -2.0030 H   0  0  0  0  0  0  0  0  0  0  0  0
  1  2  1  0  0  0  0
  2  3  1  0  0  0  0
  3  4  4  0  0  0  0
  4  5  2  0  0  0  0
  4  6  1  0  0  0  0
  6  7  1  0  0  0  0
  7  8  1  0  0  0  0
  7  9  1  0  0  0  0
  9 10  2  0  0  0  0
  9 11  4  0  0  0  0
 11 12  1  0  0  0  0
 12 13  1  0  0  0  0
  7 14  1  0  0  0  0
 14 15  1  0  0  0  0
 15 16  2  0  0  0  0
 15 17  2  0  0  0  0
 17 18  1  0  0  0  0
 15 19  1  0  0  0  0
 19 20  1  0  0  0  0
  1 21  1  0  0  0  0
  1 22  1  0  0  0  0
  1 23  1  0  0  0  0
  2 24  1  0  0  0  0
  2 25  1  0  0  0  0
  6 26  1  0  0  0  0
  6 27  1  0  0  0  0
 12 28  1  0  0  0  0
 12 29  1  0  0  0  0
 13 30  1  0  0  0  0
 13 31  1  0  0  0  0
 13 32  1  0  0  0  0
 18 33  1  0  0  0  0
 18 34  1  0  0  0  0
 18 35  1  0  0  0  0
 20 36  1  0  0  0  0
 20 37  1  0  0  0  0
 20 38  1  0  0  0  0
M  END
