41
 xtb: 6.7.1 (edcfbbe)
C            6.07355179417416       -0.39196805750249       -0.16507470116679
C            4.69195229732010       -0.76669101889688       -0.63346346367441
O            3.75743086820138        0.22389608009625       -0.07763116895222
P            2.31631102491507        0.47728334281399       -0.74903715831189
S            2.24064436818777        0.88167055820847       -2.64888979389224
O            1.78760489463745        1.70774114321819        0.13373960379640
C            1.83125028440325        1.66470889916521        1.60697138099526
C            0.94663594545053        2.77152292613402        2.11672626652253
S            1.29486498327013       -1.28546040575310       -0.14254686702548
C           -0.08801977265276       -1.36703893550998       -1.37159201957171
S           -1.68497557263907       -1.83974249749383       -0.61941907047069
P           -2.30122859672872        0.03327837120836        0.19640495535842
S           -2.01580546765883        1.57426380831440       -0.94959889612241
O           -1.55749204090229        0.20286029221000        1.60725751690631
C           -1.78270394156073       -0.75068915413741        2.70931931473945
C           -0.64047475902349       -0.60262740468236        3.67902618673837
O           -3.79812167677783       -0.33863782843600        0.64445587661530
C           -4.98676070770974       -0.03380988270861       -0.16879432148732
C           -5.17812742809082       -1.02567477568687       -1.28767071287445
H            6.35828592055300        0.59517720083873       -0.53962253980893
H            6.13148866065519       -0.39229564697420        0.92702574383058
H            6.78730198688604       -1.12739787227753       -0.54879229607676
H            4.38937449595255       -1.75234805853765       -0.26793771172939
H            4.61573708301687       -0.74522788623058       -1.72527497482538
H            1.47895447424950        0.68211768760845        1.93780241115988
H            2.87225539415419        1.79919611326765        1.91308794487875
H            0.97677539425819        2.76994779204284        3.21076213431038
H            1.29778009576820        3.74563222898372        1.76441119633251
H           -0.08911343827519        2.62633434956787        1.79781811454188
H            0.14176702429645       -2.14773942556639       -2.10047167063325
H           -0.18758359085905       -0.40632639391463       -1.88513555504717
H           -2.74371728320838       -0.49913000052732        3.16591433658276
H           -1.83119768451121       -1.76472973847843        2.29833294411614
H           -0.55771649543607        0.42948689140537        4.03231938527882
H           -0.82831902955351       -1.24828513926072        4.54262267536482
H            0.30598267932366       -0.90415317394652        3.22195446262416
H           -5.80386829369208       -0.07890910174889        0.55372870813503
H           -4.89216109235425        0.99126855990984       -0.53873924074741
H           -5.20384283412360       -2.05006272453496       -0.90468357315800
H           -6.13671440592290       -0.81586515575413       -1.77362582301952
H           -4.39007620371324       -0.94353399248791       -2.04139189994898
