41
 xtb: 6.7.1 (edcfbbe)
C            3.34536337176103       -1.90273666284201        2.14860084649133
C            2.09861822994447       -2.00092202730817        1.30484185324562
O            1.66765130249202       -0.68464166689024        0.81306992377145
P            2.40085146213954        0.05827236818587       -0.40992135146710
S            3.11805976130947       -1.07245333472942       -1.82071036110101
O            3.53048139467657        1.00697717730550        0.23243101743282
C            3.27493065514034        1.78324812694785        1.46234073782588
C            4.56345669924196        2.47567732571591        1.81918387497471
S            0.92479454717184        1.47084275217504       -0.98445876240427
C           -0.10836916723294        0.43757574903662       -2.09782948356249
S           -1.09531893437159       -0.89948982184390       -1.32390404765011
P           -2.54120425812832        0.23468377830476       -0.25177771339558
S           -3.20241224894450        1.81816278175670       -1.16480683439219
O           -1.93861191850121        0.60191203973143        1.18598464050594
C           -1.43084072063896       -0.43440923897186        2.10429851586947
C           -0.58911464122006        0.26337823974053        3.14002401645324
O           -3.58389999989641       -0.92964926696520        0.13074830117961
C           -4.50232214483621       -1.49326407828523       -0.87116518954064
C           -5.55691476568639       -2.26568687129584       -0.12363672450919
H            4.19994637952166       -1.54550674265662        1.56542635864974
H            3.19032055229693       -1.23706480720099        3.00224356889597
H            3.58799389384873       -2.90049323849971        2.52922474139005
H            1.24349790228134       -2.34963040552290        1.88815809145064
H            2.23487497400593       -2.66082622878603        0.44295184044082
H            2.47428043741477        2.50313537765529        1.26238795850227
H            2.95536689670294        1.09135573303428        2.24591877481480
H            4.40888556341894        3.05995352302754        2.73147608612583
H            5.35750320827733        1.74676706403848        2.00582766796716
H            4.87824521221513        3.15454614309592        1.02191795631151
H            0.53212667901524       -0.05386158452586       -2.83600154208330
H           -0.77935078338980        1.13773185161337       -2.60456129888710
H           -2.29523618856957       -0.93589501895725        2.54776669262126
H           -0.84650716120485       -1.15752109459529        1.52700332754348
H           -1.18774167934171        0.97479739275094        3.71604780903028
H           -0.18378530447528       -0.48430770495127        3.82906712443701
H            0.24680173401021        0.79381389948614        2.67504333463084
H           -4.93355059074767       -0.66822339691002       -1.44679518237018
H           -3.92240596874828       -2.13813368821247       -1.53860966749215
H           -6.12887016089415       -1.60733563434340        0.53613350332743
H           -6.24456985281836       -2.71415317383319       -0.84719559906864
H           -5.10895628879966       -3.06804777242423        0.46947303306420
