 xtb: 6.7.1 (edcfbbe)
          04092505213D

 41 40  0     0  0            999 V2000
    5.4528   -0.7097   -0.9158 C   0  0  0  0  0  0  0  0  0  0  0  0
    4.7860   -0.2093    0.3508 C   0  0  0  0  0  0  0  0  0  0  0  0
    3.4516   -0.7373    0.4922 O   0  0  0  0  0  0  0  0  0  0  0  0
    2.1737   -0.0839   -0.1899 P   0  0  0  0  0  0  0  0  0  0  0  0
    2.0514   -0.1296   -2.1478 S   0  0  0  0  0  0  0  0  0  0  0  0
    2.1663    1.3711    0.4570 O   0  0  0  0  0  0  0  0  0  0  0  0
    1.8795    2.5931   -0.2411 C   0  0  0  0  0  0  0  0  0  0  0  0
    3.1593    3.3749   -0.4595 C   0  0  0  0  0  0  0  0  0  0  0  0
    0.8060   -1.2506    0.9034 S   0  0  0  0  0  0  0  0  0  0  0  0
   -0.2349   -1.9094   -0.4529 C   0  0  0  0  0  0  0  0  0  0  0  0
   -1.9813   -1.9019   -0.0129 S   0  0  0  0  0  0  0  0  0  0  0  0
   -2.1842    0.1961    0.2915 P   0  0  0  0  0  0  0  0  0  0  0  0
   -1.1504    1.3445   -0.9125 S   0  0  0  0  0  0  0  0  0  0  0  0
   -1.8122    0.4826    1.7949 O   0  0  0  0  0  0  0  0  0  0  0  0
   -2.0592   -0.3838    2.9300 C   0  0  0  0  0  0  0  0  0  0  0  0
   -3.5150   -0.7723    3.0642 C   0  0  0  0  0  0  0  0  0  0  0  0
   -3.7502    0.4537    0.2634 O   0  0  0  0  0  0  0  0  0  0  0  0
   -4.4776    0.7244   -0.9477 C   0  0  0  0  0  0  0  0  0  0  0  0
   -4.4835   -0.4575   -1.8954 C   0  0  0  0  0  0  0  0  0  0  0  0
    5.4609   -1.7962   -0.9279 H   0  0  0  0  0  0  0  0  0  0  0  0
    4.9150   -0.3593   -1.7944 H   0  0  0  0  0  0  0  0  0  0  0  0
    6.4732   -0.3417   -0.9531 H   0  0  0  0  0  0  0  0  0  0  0  0
    4.7416    0.8830    0.3715 H   0  0  0  0  0  0  0  0  0  0  0  0
    5.3054   -0.5700    1.2407 H   0  0  0  0  0  0  0  0  0  0  0  0
    1.3963    2.3612   -1.1955 H   0  0  0  0  0  0  0  0  0  0  0  0
    1.1731    3.1344    0.3908 H   0  0  0  0  0  0  0  0  0  0  0  0
    3.8224    2.8252   -1.1250 H   0  0  0  0  0  0  0  0  0  0  0  0
    2.9156    4.3289   -0.9154 H   0  0  0  0  0  0  0  0  0  0  0  0
    3.6612    3.5468    0.4890 H   0  0  0  0  0  0  0  0  0  0  0  0
    0.0325   -2.9477   -0.6316 H   0  0  0  0  0  0  0  0  0  0  0  0
   -0.0659   -1.2989   -1.3446 H   0  0  0  0  0  0  0  0  0  0  0  0
   -1.4196   -1.2655    2.8259 H   0  0  0  0  0  0  0  0  0  0  0  0
   -1.7193    0.2160    3.7754 H   0  0  0  0  0  0  0  0  0  0  0  0
   -4.1402    0.1162    3.0942 H   0  0  0  0  0  0  0  0  0  0  0  0
   -3.8198   -1.3899    2.2217 H   0  0  0  0  0  0  0  0  0  0  0  0
   -3.6459   -1.3366    3.9824 H   0  0  0  0  0  0  0  0  0  0  0  0
   -5.4821    0.9642   -0.5964 H   0  0  0  0  0  0  0  0  0  0  0  0
   -4.0327    1.6008   -1.4295 H   0  0  0  0  0  0  0  0  0  0  0  0
   -3.4822   -0.6249   -2.2895 H   0  0  0  0  0  0  0  0  0  0  0  0
   -4.8131   -1.3561   -1.3805 H   0  0  0  0  0  0  0  0  0  0  0  0
   -5.1537   -0.2484   -2.7231 H   0  0  0  0  0  0  0  0  0  0  0  0
  1  2  1  0  0  0  0
  2  3  1  0  0  0  0
  3  4  2  0  0  0  0
  4  5  2  0  0  0  0
  4  6  2  0  0  0  0
  6  7  1  0  0  0  0
  7  8  1  0  0  0  0
  4  9  1  0  0  0  0
  9 10  1  0  0  0  0
 10 11  1  0  0  0  0
 11 12  1  0  0  0  0
 12 13  2  0  0  0  0
 12 14  2  0  0  0  0
 14 15  1  0  0  0  0
 15 16  1  0  0  0  0
 12 17  2  0  0  0  0
 17 18  1  0  0  0  0
 18 19  1  0  0  0  0
  1 20  1  0  0  0  0
  1 21  1  0  0  0  0
  1 22  1  0  0  0  0
  2 23  1  0  0  0  0
  2 24  1  0  0  0  0
  7 25  1  0  0  0  0
  7 26  1  0  0  0  0
  8 27  1  0  0  0  0
  8 28  1  0  0  0  0
  8 29  1  0  0  0  0
 10 30  1  0  0  0  0
 10 31  1  0  0  0  0
 15 32  1  0  0  0  0
 15 33  1  0  0  0  0
 16 34  1  0  0  0  0
 16 35  1  0  0  0  0
 16 36  1  0  0  0  0
 18 37  1  0  0  0  0
 18 38  1  0  0  0  0
 19 39  1  0  0  0  0
 19 40  1  0  0  0  0
 19 41  1  0  0  0  0
M  END
