41
 xtb: 6.7.1 (edcfbbe)
C            0.36277932680684       -2.20726772684698        2.43802332434199
C            1.25742655263982       -1.03705592244968        2.12529222724723
O            2.00953587749028       -1.36866619052957        0.90291562070046
P            2.72773150515370       -0.23339588637259        0.02618918136165
S            3.71790055318111       -1.01844569180287       -1.45056630293780
O            3.52701209310090        0.60094492012027        1.14300689888457
C            4.77195632496818        1.33718928740179        0.87247888980510
C            4.50878049913730        2.67971722839830        0.23919675984210
S            1.24334849425525        1.19454176802171       -0.51216779978030
C            0.42582616062321        0.32037734190342       -1.90637066206334
S           -0.64522762874171       -1.10117344747781       -1.47600171136742
P           -2.26994922033196       -0.08572632277231       -0.56279921837412
S           -2.80348756484272        1.58558017990869       -1.41471574139466
O           -1.90775808684098        0.02558212216556        1.00201433860168
C           -1.97984372269885        1.26983508174366        1.77743985393994
C           -3.32893054974584        1.40351673230727        2.43723474355511
O           -3.25669044910769       -1.35313823097368       -0.62388992817058
C           -4.42667937547344       -1.48279127155332        0.26344957355003
C           -5.63526246031494       -0.78346427440358       -0.30682149761684
H           -0.34364946167389       -2.39125833736116        1.62379031585474
H            0.94974089973158       -3.11312171416450        2.61432336615214
H           -0.20634372245248       -1.98240643038427        3.34560792504780
H            1.98483379898560       -0.85264594139188        2.92081738011135
H            0.68003156133030       -0.12519497062847        1.94468721551456
H            5.22437897387031        1.43999721121926        1.86070196053775
H            5.41298699360031        0.70682750858642        0.24944094344760
H            4.10709538398811        2.57769909703497       -0.77280138379324
H            3.81406541871527        3.26996203897566        0.84381752994554
H            5.45709222656586        3.22345364615773        0.17539928688355
H            1.18844329065655       -0.07093416783506       -2.58709733876315
H           -0.16824955317708        1.07867250021688       -2.42543937490645
H           -1.17679412081584        1.17715478055667        2.51226286797267
H           -1.76314151424222        2.11267328214033        1.11575608715325
H           -3.33474752410074        2.31441350576084        3.04519489489657
H           -4.12661645478702        1.48207630533842        1.69196959903363
H           -3.53288485933941        0.55179668360163        3.09240488922549
H           -4.58020089600385       -2.56191811007893        0.32682444506266
H           -4.15955745133074       -1.10646764808378        1.25455434624024
H           -6.49676704281642       -1.00517217817529        0.33197915060465
H           -5.49871490043992        0.30062413601676       -0.33597279492083
H           -5.85421752298426       -1.14328839108465       -1.31636849150792
