41
 xtb: 6.7.1 (edcfbbe)
C            0.02591547794374       -0.63788298063380        3.17056780244523
C            1.14688073766989       -0.05436614713169        2.35127945822789
O            1.56674335300265       -1.08875737125388        1.38722340767655
P            2.45213398323619       -0.73217621448827        0.10084822050520
S            2.92239459431508       -2.33287335464257       -0.89625075547267
O            3.63169620241279        0.13889583349509        0.76317084615541
C            4.76943469012957        0.61814014590887       -0.03794729624566
C            5.86201147908208        1.00384077178361        0.92386039651209
S            1.45272615879479        0.77648687249508       -1.01678367747899
C            0.37431174482158       -0.24723836950893       -2.09112227862899
S           -1.00068324337719       -1.15489528310821       -1.28001316907442
P           -2.26775631208106        0.46354714231511       -0.74654367264911
S           -2.52044436325422        1.84295679015711       -2.09327242514665
O           -1.62845096720815        0.92371218356597        0.65493773849370
C           -1.85005079706721        2.26160189423432        1.22121250480274
C           -3.24262905368559        2.41067327928759        1.78206115887652
O           -3.64030564052018       -0.29905107574584       -0.39434819743018
C           -3.73247550827779       -1.20285850651080        0.77084954261271
C           -5.11890331319069       -1.78931587170196        0.76380853715088
H           -0.82401066713899       -0.90887817003637        2.53802080451109
H            0.36210398761198       -1.52321448531393        3.71773174131067
H           -0.30718314413685        0.11010914388742        3.89695173766374
H            2.01551796729498        0.19727173079485        2.96581976117809
H            0.82508013383568        0.83243530857167        1.79583386972406
H            5.08453064069486       -0.18638864937500       -0.71003906490327
H            4.42735581346672        1.47271761708381       -0.62966368479184
H            5.52353009012964        1.78699395480434        1.60810200198821
H            6.19538827619877        0.13918274669097        1.50436149375995
H            6.71358088522759        1.38824648674282        0.35418849931285
H            0.97771610743462       -1.01440682546943       -2.58542483318055
H           -0.03392468881316        0.43665022488014       -2.84109021045233
H           -1.09049292066217        2.33687185975830        2.00275691654301
H           -1.63692473380170        3.00125866225675        0.44337148321370
H           -3.32800170019491        3.39861333324488        2.24661670395626
H           -4.00278218022817        2.33861947249180        0.99788390553106
H           -3.44173621014359        1.65367303992278        2.54585748236524
H           -2.96696954550775       -1.98048919816881        0.67737031252772
H           -3.54287385782682       -0.61414116817418        1.67204991107850
H           -5.87430789173472       -1.00222201682956        0.84044307808606
H           -5.29562659025379       -2.37021586253029       -0.14545502745659
H           -5.22398515933044       -2.45445886782725        1.62638593984954
