41
 xtb: 6.7.1 (edcfbbe)
C            4.35035702981737       -2.40811029524785        0.72639625671742
C            4.65383538579435       -0.96076535035644        0.42994601903114
O            3.51472828559960       -0.08459611856824        0.73869388194367
P            2.26033666036488        0.11181384586892       -0.25199624328014
S            2.58150726484081       -0.10062279380683       -2.16153908333719
O            1.70668508153946        1.54079583442171        0.23425340411987
C            2.15402588092605        2.79298244578017       -0.39845968804620
C            3.58396054159239        3.12785689750792       -0.05208224083248
S            0.83912339181199       -1.19650842370590        0.61552733557170
C           -0.38087977961504       -1.32747593238021       -0.75214899785879
S           -1.32618447728450        0.19066259269353       -1.19559099746931
P           -2.91003486807698        0.13739638357193        0.19949440226415
S           -4.12635310469924        1.60431226021349       -0.19356377509342
O           -2.24535407097218        0.07850892975022        1.66402941637293
C           -1.49914362049558        1.24144729158721        2.16363059037784
C           -0.96187682681996        0.87723453878848        3.52260865215536
O           -3.49736703331176       -1.35604816647771        0.23485769491052
C           -4.58943084689493       -1.79232319644867       -0.64747690812061
C           -4.11669977832820       -2.06439439237115       -2.05419230920192
H            5.26891482125129       -2.98925195355577        0.59416541973734
H            4.00973239568796       -2.53426339046252        1.75827665710778
H            3.59224582551477       -2.80950422177924        0.04818331143764
H            4.93338616403795       -0.80496171640783       -0.61633441071401
H            5.44983949969034       -0.57785062593807        1.07182552935591
H            2.00271897350333        2.70176830744122       -1.47851471177751
H            1.45868181271992        3.53604701849858       -0.00314628101555
H            3.72795189809171        3.16093422138997        1.03159767029375
H            4.28552660321582        2.40771846782249       -0.48399193960151
H            3.81737603715357        4.11615552634193       -0.46200702434201
H           -1.07135332739456       -2.12238048953358       -0.45594760848892
H            0.13940109285863       -1.63250176854055       -1.66465564938027
H           -0.69317314923354        1.46698754801077        1.45737299051207
H           -2.18743042552534        2.09114608828496        2.21435027746682
H           -1.77488748017441        0.64194533298404        4.21527828579676
H           -0.28445570342991        0.02108669636967        3.46062902987347
H           -0.40474949451475        1.73089405175890        3.92062016339206
H           -4.95200386228881       -2.70132628614543       -0.16390364251434
H           -5.37813041608307       -1.03443965332968       -0.61866142551085
H           -3.27022921515991       -2.75783033307066       -2.05743994004857
H           -4.94009216135131       -2.52398238005526       -2.61071071573963
H           -3.82788956952400       -1.14562143317556       -2.57114094599097
