 xtb: 6.7.1 (edcfbbe)
          04092507313D

 38 37  0     0  0            999 V2000
    3.4279   -4.2713   -0.8273 C   0  0  0  0  0  0  0  0  0  0  0  0
    2.0208   -3.7604   -1.0925 C   0  0  0  0  0  0  0  0  0  0  0  0
    1.7896   -2.5077   -0.4185 O   0  0  0  0  0  0  0  0  0  0  0  0
    2.1834   -1.3983   -1.0101 C   0  0  0  0  0  0  0  0  0  0  0  0
    2.7004   -1.3429   -2.1031 O   0  0  0  0  0  0  0  0  0  0  0  0
    1.8629   -0.1773   -0.1671 C   0  0  0  0  0  0  0  0  0  0  0  0
    0.8158    0.6590   -0.8978 C   0  0  0  0  0  0  0  0  0  0  0  0
    1.1933    0.9262   -1.8911 H   0  0  0  0  0  0  0  0  0  0  0  0
    0.4400    1.9379   -0.1695 C   0  0  0  0  0  0  0  0  0  0  0  0
   -0.7080    2.3272   -0.0931 O   0  0  0  0  0  0  0  0  0  0  0  0
    1.4836    2.5464    0.3213 O   0  0  0  0  0  0  0  0  0  0  0  0
    1.2768    3.7797    1.0433 C   0  0  0  0  0  0  0  0  0  0  0  0
    1.1735    4.9605    0.0927 C   0  0  0  0  0  0  0  0  0  0  0  0
   -0.7135   -0.2758   -1.2260 S   0  0  0  0  0  0  0  0  0  0  0  0
   -1.7133   -0.0605    0.6447 P   0  0  0  0  0  0  0  0  0  0  0  0
   -0.6694    0.3011    2.2612 S   0  0  0  0  0  0  0  0  0  0  0  0
   -2.9652    0.8852    0.4866 O   0  0  0  0  0  0  0  0  0  0  0  0
   -3.8848    0.7884   -0.6179 C   0  0  0  0  0  0  0  0  0  0  0  0
   -2.4630   -1.4803    0.7078 O   0  0  0  0  0  0  0  0  0  0  0  0
   -1.7311   -2.6880    0.9350 C   0  0  0  0  0  0  0  0  0  0  0  0
    3.6010   -4.3521    0.2423 H   0  0  0  0  0  0  0  0  0  0  0  0
    3.5465   -5.2480   -1.2844 H   0  0  0  0  0  0  0  0  0  0  0  0
    4.1600   -3.5903   -1.2551 H   0  0  0  0  0  0  0  0  0  0  0  0
    1.2707   -4.4352   -0.6798 H   0  0  0  0  0  0  0  0  0  0  0  0
    1.8565   -3.6130   -2.1636 H   0  0  0  0  0  0  0  0  0  0  0  0
    2.7644    0.4254   -0.0489 H   0  0  0  0  0  0  0  0  0  0  0  0
    1.4985   -0.4911    0.8119 H   0  0  0  0  0  0  0  0  0  0  0  0
    0.3695    3.6773    1.6455 H   0  0  0  0  0  0  0  0  0  0  0  0
    2.1519    3.8572    1.6879 H   0  0  0  0  0  0  0  0  0  0  0  0
    0.2899    4.8625   -0.5340 H   0  0  0  0  0  0  0  0  0  0  0  0
    1.0944    5.8755    0.6701 H   0  0  0  0  0  0  0  0  0  0  0  0
    2.0556    5.0104   -0.5397 H   0  0  0  0  0  0  0  0  0  0  0  0
   -3.3584    0.9770   -1.5535 H   0  0  0  0  0  0  0  0  0  0  0  0
   -4.6265    1.5612   -0.4339 H   0  0  0  0  0  0  0  0  0  0  0  0
   -4.3438   -0.1985   -0.6348 H   0  0  0  0  0  0  0  0  0  0  0  0
   -1.0890   -2.9007    0.0799 H   0  0  0  0  0  0  0  0  0  0  0  0
   -2.4803   -3.4656    1.0576 H   0  0  0  0  0  0  0  0  0  0  0  0
   -1.1244   -2.5933    1.8369 H   0  0  0  0  0  0  0  0  0  0  0  0
  1  2  1  0  0  0  0
  2  3  1  0  0  0  0
  3  4  1  0  0  0  0
  4  5  2  0  0  0  0
  4  6  1  0  0  0  0
  6  7  1  0  0  0  0
  7  8  1  0  0  0  0
  7  9  1  0  0  0  0
  9 10  2  0  0  0  0
  9 11  4  0  0  0  0
 11 12  1  0  0  0  0
 12 13  1  0  0  0  0
  7 14  1  0  0  0  0
 14 15  1  0  0  0  0
 15 16  2  0  0  0  0
 15 17  2  0  0  0  0
 17 18  1  0  0  0  0
 15 19  1  0  0  0  0
 19 20  1  0  0  0  0
  1 21  1  0  0  0  0
  1 22  1  0  0  0  0
  1 23  1  0  0  0  0
  2 24  1  0  0  0  0
  2 25  1  0  0  0  0
  6 26  1  0  0  0  0
  6 27  1  0  0  0  0
 12 28  1  0  0  0  0
 12 29  1  0  0  0  0
 13 30  1  0  0  0  0
 13 31  1  0  0  0  0
 13 32  1  0  0  0  0
 18 33  1  0  0  0  0
 18 34  1  0  0  0  0
 18 35  1  0  0  0  0
 20 36  1  0  0  0  0
 20 37  1  0  0  0  0
 20 38  1  0  0  0  0
M  END
