  19
 
 C          3.4041232581        0.2942245738        0.0509052234
 C          2.1752562853       -0.6054978781       -0.0037512579
 C          0.8832722695        0.2070351709       -0.0032457701
 C         -0.3545849269       -0.6834274351       -0.0676621104
 C         -1.6418832708        0.0993100137       -0.1318234036
 O         -1.6747972479        1.2993945441       -0.3220882389
 C         -2.8870941126       -0.7179086283        0.0649180343
 H          4.3144700576       -0.2999531076        0.0545835557
 H          3.4283034156        0.9570738622       -0.8111984955
 H          3.3879980612        0.9061860198        0.9499895802
 H          2.1802864701       -1.2776387365        0.8570531914
 H          2.2166081778       -1.2189023171       -0.9064283233
 H          0.8744833000        0.8895038659       -0.8560613472
 H          0.8349821163        0.8214014235        0.8988387009
 H         -0.3126506151       -1.3082961197       -0.9638188710
 H         -0.3929186875       -1.3541570367        0.7922600807
 H         -2.9988881221       -0.9172384140        1.1284578203
 H         -3.7574420585       -0.1654125928       -0.2768403406
 H         -2.8110877567       -1.6689750182       -0.4522506090
          19
        -23.03221664
 C          3.4145261570       -0.2981195201        0.0732500220
 C          2.1845757455        0.5896847228       -0.0721735967
 C          0.8924040351       -0.2136853562        0.0493330445
 C         -0.3451231372        0.6692659683       -0.0863926743
 C         -1.6356189277       -0.1081107502       -0.0201700014
 O         -1.6754243534       -1.3225339095       -0.0476035022
 C         -2.8744943518        0.7345930613        0.0915836871
 H          4.3243559856        0.2896931201       -0.0193114709
 H          3.4178413573       -0.7879530316        1.0443876967
 H          3.4212211884       -1.0673979040       -0.6956533525
 H          2.2108199861        1.0873491598       -1.0439601593
 H          2.2034682192        1.3624815741        0.6992851973
 H          0.8640992146       -0.7226335324        1.0155989978
 H          0.8631184283       -0.9875680568       -0.7209603405
 H         -0.3578281536        1.4368691119        0.6891531827
 H         -0.3270478032        1.1840321368       -1.0506265618
 H         -2.9578263547        1.0844673637        1.1188318139
 H         -2.8112558326        1.6020112542       -0.5577303811
 H         -3.7544773125        0.1432163330       -0.1455768178
