 xtb: 6.7.1 (edcfbbe)
          04092505213D

 41 40  0     0  0            999 V2000
    3.5786   -0.7315   -2.6557 C   0  0  0  0  0  0  0  0  0  0  0  0
    2.1442   -0.2908   -2.4607 C   0  0  0  0  0  0  0  0  0  0  0  0
    1.5501   -0.9114   -1.3042 O   0  0  0  0  0  0  0  0  0  0  0  0
    2.0541   -0.6074    0.1644 P   0  0  0  0  0  0  0  0  0  0  0  0
    2.7956    1.1758    0.5244 S   0  0  0  0  0  0  0  0  0  0  0  0
    3.0405   -1.8390    0.3701 O   0  0  0  0  0  0  0  0  0  0  0  0
    3.7373   -2.0804    1.6075 C   0  0  0  0  0  0  0  0  0  0  0  0
    5.1145   -1.4453    1.5917 C   0  0  0  0  0  0  0  0  0  0  0  0
    0.4025   -1.1840    1.3436 S   0  0  0  0  0  0  0  0  0  0  0  0
   -0.1728    0.4414    1.9613 C   0  0  0  0  0  0  0  0  0  0  0  0
   -1.9532    0.6526    1.8004 S   0  0  0  0  0  0  0  0  0  0  0  0
   -2.1135    1.0198   -0.2963 P   0  0  0  0  0  0  0  0  0  0  0  0
   -0.4566    1.6357   -1.1424 S   0  0  0  0  0  0  0  0  0  0  0  0
   -3.2669    2.0708   -0.4655 O   0  0  0  0  0  0  0  0  0  0  0  0
   -4.6873    1.7983   -0.3464 C   0  0  0  0  0  0  0  0  0  0  0  0
   -5.0693    1.2973    1.0291 C   0  0  0  0  0  0  0  0  0  0  0  0
   -2.7655   -0.2874   -0.9317 O   0  0  0  0  0  0  0  0  0  0  0  0
   -2.0345   -1.5024   -1.1750 C   0  0  0  0  0  0  0  0  0  0  0  0
   -2.7747   -2.2826   -2.2425 C   0  0  0  0  0  0  0  0  0  0  0  0
    4.1863   -0.3788   -1.8230 H   0  0  0  0  0  0  0  0  0  0  0  0
    3.6337   -1.8161   -2.6980 H   0  0  0  0  0  0  0  0  0  0  0  0
    3.9633   -0.3088   -3.5785 H   0  0  0  0  0  0  0  0  0  0  0  0
    1.5027   -0.6057   -3.2849 H   0  0  0  0  0  0  0  0  0  0  0  0
    2.0744    0.7960   -2.3429 H   0  0  0  0  0  0  0  0  0  0  0  0
    3.1389   -1.6981    2.4398 H   0  0  0  0  0  0  0  0  0  0  0  0
    3.8016   -3.1679    1.6762 H   0  0  0  0  0  0  0  0  0  0  0  0
    5.0296   -0.3640    1.5081 H   0  0  0  0  0  0  0  0  0  0  0  0
    5.6312   -1.6892    2.5143 H   0  0  0  0  0  0  0  0  0  0  0  0
    5.6887   -1.8187    0.7484 H   0  0  0  0  0  0  0  0  0  0  0  0
    0.3548    1.2257    1.4121 H   0  0  0  0  0  0  0  0  0  0  0  0
    0.0382    0.4961    3.0261 H   0  0  0  0  0  0  0  0  0  0  0  0
   -5.1404    2.7667   -0.5635 H   0  0  0  0  0  0  0  0  0  0  0  0
   -4.9599    1.0768   -1.1182 H   0  0  0  0  0  0  0  0  0  0  0  0
   -6.1496    1.2056    1.0848 H   0  0  0  0  0  0  0  0  0  0  0  0
   -4.6213    0.3233    1.2166 H   0  0  0  0  0  0  0  0  0  0  0  0
   -4.7284    1.9896    1.7946 H   0  0  0  0  0  0  0  0  0  0  0  0
   -1.0185   -1.2494   -1.4971 H   0  0  0  0  0  0  0  0  0  0  0  0
   -1.9786   -2.0629   -0.2372 H   0  0  0  0  0  0  0  0  0  0  0  0
   -2.8252   -1.7041   -3.1610 H   0  0  0  0  0  0  0  0  0  0  0  0
   -2.2466   -3.2112   -2.4323 H   0  0  0  0  0  0  0  0  0  0  0  0
   -3.7837   -2.5042   -1.9077 H   0  0  0  0  0  0  0  0  0  0  0  0
  1  2  1  0  0  0  0
  2  3  1  0  0  0  0
  3  4  2  0  0  0  0
  4  5  2  0  0  0  0
  4  6  2  0  0  0  0
  6  7  1  0  0  0  0
  7  8  1  0  0  0  0
  4  9  1  0  0  0  0
  9 10  1  0  0  0  0
 10 11  1  0  0  0  0
 11 12  1  0  0  0  0
 12 13  2  0  0  0  0
 12 14  2  0  0  0  0
 14 15  1  0  0  0  0
 15 16  1  0  0  0  0
 12 17  2  0  0  0  0
 17 18  1  0  0  0  0
 18 19  1  0  0  0  0
  1 20  1  0  0  0  0
  1 21  1  0  0  0  0
  1 22  1  0  0  0  0
  2 23  1  0  0  0  0
  2 24  1  0  0  0  0
  7 25  1  0  0  0  0
  7 26  1  0  0  0  0
  8 27  1  0  0  0  0
  8 28  1  0  0  0  0
  8 29  1  0  0  0  0
 10 30  1  0  0  0  0
 10 31  1  0  0  0  0
 15 32  1  0  0  0  0
 15 33  1  0  0  0  0
 16 34  1  0  0  0  0
 16 35  1  0  0  0  0
 16 36  1  0  0  0  0
 18 37  1  0  0  0  0
 18 38  1  0  0  0  0
 19 39  1  0  0  0  0
 19 40  1  0  0  0  0
 19 41  1  0  0  0  0
M  END
