 xtb: 6.7.1 (edcfbbe)
          04092507313D

 38 37  0     0  0            999 V2000
    2.9285   -1.5966    1.4286 C   0  0  0  0  0  0  0  0  0  0  0  0
    1.9967   -2.1937    0.3891 C   0  0  0  0  0  0  0  0  0  0  0  0
    1.4375   -1.1831   -0.4725 O   0  0  0  0  0  0  0  0  0  0  0  0
    2.1597   -0.8139   -1.5184 C   0  0  0  0  0  0  0  0  0  0  0  0
    3.2661   -1.2428   -1.7611 O   0  0  0  0  0  0  0  0  0  0  0  0
    1.4605    0.1694   -2.4317 C   0  0  0  0  0  0  0  0  0  0  0  0
    0.1899    0.8108   -1.8903 C   0  0  0  0  0  0  0  0  0  0  0  0
   -0.1926    1.5076   -2.6449 H   0  0  0  0  0  0  0  0  0  0  0  0
    0.3881    1.6079   -0.6231 C   0  0  0  0  0  0  0  0  0  0  0  0
   -0.4927    1.7167    0.2135 O   0  0  0  0  0  0  0  0  0  0  0  0
    1.5479    2.1949   -0.5662 O   0  0  0  0  0  0  0  0  0  0  0  0
    1.8447    3.0326    0.5749 C   0  0  0  0  0  0  0  0  0  0  0  0
    2.3453    2.2062    1.7462 C   0  0  0  0  0  0  0  0  0  0  0  0
   -1.1804   -0.3807   -1.6298 S   0  0  0  0  0  0  0  0  0  0  0  0
   -1.7438   -0.3042    0.4222 P   0  0  0  0  0  0  0  0  0  0  0  0
   -0.5937   -0.4889    2.0107 S   0  0  0  0  0  0  0  0  0  0  0  0
   -2.9619    0.7133    0.5190 O   0  0  0  0  0  0  0  0  0  0  0  0
   -3.0196    1.8380    1.3965 C   0  0  0  0  0  0  0  0  0  0  0  0
   -2.7050   -1.5974    0.3166 O   0  0  0  0  0  0  0  0  0  0  0  0
   -2.1850   -2.9249    0.3194 C   0  0  0  0  0  0  0  0  0  0  0  0
    2.3811   -0.8968    2.0546 H   0  0  0  0  0  0  0  0  0  0  0  0
    3.3206   -2.3943    2.0504 H   0  0  0  0  0  0  0  0  0  0  0  0
    3.7561   -1.0866    0.9415 H   0  0  0  0  0  0  0  0  0  0  0  0
    1.1325   -2.6578    0.8651 H   0  0  0  0  0  0  0  0  0  0  0  0
    2.5259   -2.9167   -0.2380 H   0  0  0  0  0  0  0  0  0  0  0  0
    1.2210   -0.3763   -3.3475 H   0  0  0  0  0  0  0  0  0  0  0  0
    2.1823    0.9475   -2.6885 H   0  0  0  0  0  0  0  0  0  0  0  0
    2.6132    3.7125    0.2077 H   0  0  0  0  0  0  0  0  0  0  0  0
    0.9407    3.5828    0.8479 H   0  0  0  0  0  0  0  0  0  0  0  0
    1.5735    1.5147    2.0803 H   0  0  0  0  0  0  0  0  0  0  0  0
    3.2263    1.6389    1.4588 H   0  0  0  0  0  0  0  0  0  0  0  0
    2.5993    2.8673    2.5679 H   0  0  0  0  0  0  0  0  0  0  0  0
   -2.3059    1.7218    2.2142 H   0  0  0  0  0  0  0  0  0  0  0  0
   -4.0360    1.8700    1.7830 H   0  0  0  0  0  0  0  0  0  0  0  0
   -2.7907    2.7422    0.8346 H   0  0  0  0  0  0  0  0  0  0  0  0
   -1.5243   -3.0650    1.1781 H   0  0  0  0  0  0  0  0  0  0  0  0
   -1.6413   -3.1246   -0.6050 H   0  0  0  0  0  0  0  0  0  0  0  0
   -3.0498   -3.5790    0.3993 H   0  0  0  0  0  0  0  0  0  0  0  0
  1  2  1  0  0  0  0
  2  3  1  0  0  0  0
  3  4  1  0  0  0  0
  4  5  2  0  0  0  0
  4  6  1  0  0  0  0
  6  7  1  0  0  0  0
  7  8  1  0  0  0  0
  7  9  1  0  0  0  0
  9 10  2  0  0  0  0
  9 11  4  0  0  0  0
 11 12  1  0  0  0  0
 12 13  1  0  0  0  0
  7 14  1  0  0  0  0
 14 15  1  0  0  0  0
 15 16  2  0  0  0  0
 15 17  2  0  0  0  0
 17 18  1  0  0  0  0
 15 19  1  0  0  0  0
 19 20  1  0  0  0  0
  1 21  1  0  0  0  0
  1 22  1  0  0  0  0
  1 23  1  0  0  0  0
  2 24  1  0  0  0  0
  2 25  1  0  0  0  0
  6 26  1  0  0  0  0
  6 27  1  0  0  0  0
 12 28  1  0  0  0  0
 12 29  1  0  0  0  0
 13 30  1  0  0  0  0
 13 31  1  0  0  0  0
 13 32  1  0  0  0  0
 18 33  1  0  0  0  0
 18 34  1  0  0  0  0
 18 35  1  0  0  0  0
 20 36  1  0  0  0  0
 20 37  1  0  0  0  0
 20 38  1  0  0  0  0
M  END
