 xtb: 6.7.1 (edcfbbe)
          04092505203D

 41 40  0     0  0            999 V2000
    3.6652   -1.7408   -2.3583 C   0  0  0  0  0  0  0  0  0  0  0  0
    4.0409   -0.3179   -2.0002 C   0  0  0  0  0  0  0  0  0  0  0  0
    3.6008    0.0462   -0.6793 O   0  0  0  0  0  0  0  0  0  0  0  0
    2.0621    0.1502   -0.2921 P   0  0  0  0  0  0  0  0  0  0  0  0
    0.9357    0.9585   -1.6675 S   0  0  0  0  0  0  0  0  0  0  0  0
    2.0688    1.0085    1.0278 O   0  0  0  0  0  0  0  0  0  0  0  0
    2.8408    0.7067    2.2150 C   0  0  0  0  0  0  0  0  0  0  0  0
    4.1786    1.4164    2.1871 C   0  0  0  0  0  0  0  0  0  0  0  0
    1.6304   -1.8364    0.3510 S   0  0  0  0  0  0  0  0  0  0  0  0
   -0.0468   -1.5930    0.9812 C   0  0  0  0  0  0  0  0  0  0  0  0
   -1.2951   -1.4443   -0.3391 S   0  0  0  0  0  0  0  0  0  0  0  0
   -2.2829    0.2975    0.3882 P   0  0  0  0  0  0  0  0  0  0  0  0
   -1.1933    1.5502    1.4253 S   0  0  0  0  0  0  0  0  0  0  0  0
   -3.4526   -0.2147    1.3118 O   0  0  0  0  0  0  0  0  0  0  0  0
   -4.4563   -1.1764    0.8953 C   0  0  0  0  0  0  0  0  0  0  0  0
   -4.2169   -2.5088    1.5775 C   0  0  0  0  0  0  0  0  0  0  0  0
   -3.1025    0.8057   -0.8718 O   0  0  0  0  0  0  0  0  0  0  0  0
   -2.5728    1.3474   -2.0946 C   0  0  0  0  0  0  0  0  0  0  0  0
   -2.2242    2.8139   -1.9442 C   0  0  0  0  0  0  0  0  0  0  0  0
    4.1248   -2.0051   -3.3052 H   0  0  0  0  0  0  0  0  0  0  0  0
    4.0029   -2.4283   -1.5867 H   0  0  0  0  0  0  0  0  0  0  0  0
    2.5837   -1.8262   -2.4564 H   0  0  0  0  0  0  0  0  0  0  0  0
    3.6043    0.3870   -2.7145 H   0  0  0  0  0  0  0  0  0  0  0  0
    5.1227   -0.1834   -1.9597 H   0  0  0  0  0  0  0  0  0  0  0  0
    2.2147    1.0652    3.0350 H   0  0  0  0  0  0  0  0  0  0  0  0
    2.9711   -0.3769    2.2890 H   0  0  0  0  0  0  0  0  0  0  0  0
    4.6923    1.2380    3.1266 H   0  0  0  0  0  0  0  0  0  0  0  0
    4.7867    1.0433    1.3674 H   0  0  0  0  0  0  0  0  0  0  0  0
    4.0292    2.4849    2.0568 H   0  0  0  0  0  0  0  0  0  0  0  0
   -0.0868   -0.6823    1.5861 H   0  0  0  0  0  0  0  0  0  0  0  0
   -0.2689   -2.4766    1.5736 H   0  0  0  0  0  0  0  0  0  0  0  0
   -5.4058   -0.7364    1.2035 H   0  0  0  0  0  0  0  0  0  0  0  0
   -4.4327   -1.2737   -0.1918 H   0  0  0  0  0  0  0  0  0  0  0  0
   -5.0462   -3.1729    1.3561 H   0  0  0  0  0  0  0  0  0  0  0  0
   -3.2958   -2.9611    1.2185 H   0  0  0  0  0  0  0  0  0  0  0  0
   -4.1479   -2.3672    2.6525 H   0  0  0  0  0  0  0  0  0  0  0  0
   -1.6952    0.7728   -2.4015 H   0  0  0  0  0  0  0  0  0  0  0  0
   -3.3803    1.2029   -2.8150 H   0  0  0  0  0  0  0  0  0  0  0  0
   -1.9136    3.2063   -2.9069 H   0  0  0  0  0  0  0  0  0  0  0  0
   -3.0830    3.3717   -1.5803 H   0  0  0  0  0  0  0  0  0  0  0  0
   -1.4022    2.9334   -1.2408 H   0  0  0  0  0  0  0  0  0  0  0  0
  1  2  1  0  0  0  0
  2  3  1  0  0  0  0
  3  4  2  0  0  0  0
  4  5  2  0  0  0  0
  4  6  2  0  0  0  0
  6  7  1  0  0  0  0
  7  8  1  0  0  0  0
  4  9  1  0  0  0  0
  9 10  1  0  0  0  0
 10 11  1  0  0  0  0
 11 12  1  0  0  0  0
 12 13  2  0  0  0  0
 12 14  2  0  0  0  0
 14 15  1  0  0  0  0
 15 16  1  0  0  0  0
 12 17  2  0  0  0  0
 17 18  1  0  0  0  0
 18 19  1  0  0  0  0
  1 20  1  0  0  0  0
  1 21  1  0  0  0  0
  1 22  1  0  0  0  0
  2 23  1  0  0  0  0
  2 24  1  0  0  0  0
  7 25  1  0  0  0  0
  7 26  1  0  0  0  0
  8 27  1  0  0  0  0
  8 28  1  0  0  0  0
  8 29  1  0  0  0  0
 10 30  1  0  0  0  0
 10 31  1  0  0  0  0
 15 32  1  0  0  0  0
 15 33  1  0  0  0  0
 16 34  1  0  0  0  0
 16 35  1  0  0  0  0
 16 36  1  0  0  0  0
 18 37  1  0  0  0  0
 18 38  1  0  0  0  0
 19 39  1  0  0  0  0
 19 40  1  0  0  0  0
 19 41  1  0  0  0  0
M  END
