 xtb: 6.7.1 (edcfbbe)
          04092507313D

 38 37  0     0  0            999 V2000
    1.5596   -4.1160   -1.7027 C   0  0  0  0  0  0  0  0  0  0  0  0
    2.0792   -2.8621   -2.3876 C   0  0  0  0  0  0  0  0  0  0  0  0
    1.9116   -1.7098   -1.5409 O   0  0  0  0  0  0  0  0  0  0  0  0
    2.8228   -1.4728   -0.6184 C   0  0  0  0  0  0  0  0  0  0  0  0
    3.8344   -2.1214   -0.4691 O   0  0  0  0  0  0  0  0  0  0  0  0
    2.4877   -0.2691    0.2431 C   0  0  0  0  0  0  0  0  0  0  0  0
    1.0625    0.2335    0.0627 C   0  0  0  0  0  0  0  0  0  0  0  0
    0.8664    0.4504   -0.9931 H   0  0  0  0  0  0  0  0  0  0  0  0
    0.7908    1.5026    0.8510 C   0  0  0  0  0  0  0  0  0  0  0  0
   -0.1758    1.6264    1.5752 O   0  0  0  0  0  0  0  0  0  0  0  0
    1.7027    2.4129    0.6405 O   0  0  0  0  0  0  0  0  0  0  0  0
    1.5155    3.7198    1.2265 C   0  0  0  0  0  0  0  0  0  0  0  0
    0.7121    4.6058    0.2892 C   0  0  0  0  0  0  0  0  0  0  0  0
   -0.1513   -1.0209    0.5983 S   0  0  0  0  0  0  0  0  0  0  0  0
   -1.9162    0.0976    0.2115 P   0  0  0  0  0  0  0  0  0  0  0  0
   -1.7959    1.5513   -1.0936 S   0  0  0  0  0  0  0  0  0  0  0  0
   -2.9002   -1.0802   -0.2736 O   0  0  0  0  0  0  0  0  0  0  0  0
   -2.6991   -1.7378   -1.5266 C   0  0  0  0  0  0  0  0  0  0  0  0
   -2.6490    0.4916    1.5526 O   0  0  0  0  0  0  0  0  0  0  0  0
   -2.8329   -0.4375    2.6375 C   0  0  0  0  0  0  0  0  0  0  0  0
    0.5313   -3.9699   -1.3830 H   0  0  0  0  0  0  0  0  0  0  0  0
    1.6069   -4.9501   -2.3945 H   0  0  0  0  0  0  0  0  0  0  0  0
    2.1676   -4.3431   -0.8303 H   0  0  0  0  0  0  0  0  0  0  0  0
    1.5034   -2.6270   -3.2829 H   0  0  0  0  0  0  0  0  0  0  0  0
    3.1402   -2.9661   -2.6312 H   0  0  0  0  0  0  0  0  0  0  0  0
    3.1830    0.5328   -0.0174 H   0  0  0  0  0  0  0  0  0  0  0  0
    2.6744   -0.5495    1.2816 H   0  0  0  0  0  0  0  0  0  0  0  0
    1.0061    3.6028    2.1865 H   0  0  0  0  0  0  0  0  0  0  0  0
    2.5265    4.1006    1.3703 H   0  0  0  0  0  0  0  0  0  0  0  0
    0.5945    5.5883    0.7336 H   0  0  0  0  0  0  0  0  0  0  0  0
    1.2193    4.7003   -0.6667 H   0  0  0  0  0  0  0  0  0  0  0  0
   -0.2732    4.1752    0.1169 H   0  0  0  0  0  0  0  0  0  0  0  0
   -2.6232   -1.0007   -2.3278 H   0  0  0  0  0  0  0  0  0  0  0  0
   -3.5719   -2.3692   -1.6708 H   0  0  0  0  0  0  0  0  0  0  0  0
   -1.7904   -2.3389   -1.4892 H   0  0  0  0  0  0  0  0  0  0  0  0
   -3.4093   -1.2968    2.2991 H   0  0  0  0  0  0  0  0  0  0  0  0
   -3.3744    0.1207    3.3967 H   0  0  0  0  0  0  0  0  0  0  0  0
   -1.8625   -0.7580    3.0164 H   0  0  0  0  0  0  0  0  0  0  0  0
  1  2  1  0  0  0  0
  2  3  1  0  0  0  0
  3  4  1  0  0  0  0
  4  5  2  0  0  0  0
  4  6  1  0  0  0  0
  6  7  1  0  0  0  0
  7  8  1  0  0  0  0
  7  9  1  0  0  0  0
  9 10  2  0  0  0  0
  9 11  4  0  0  0  0
 11 12  1  0  0  0  0
 12 13  1  0  0  0  0
  7 14  1  0  0  0  0
 14 15  1  0  0  0  0
 15 16  2  0  0  0  0
 15 17  1  0  0  0  0
 17 18  1  0  0  0  0
 15 19  2  0  0  0  0
 19 20  1  0  0  0  0
  1 21  1  0  0  0  0
  1 22  1  0  0  0  0
  1 23  1  0  0  0  0
  2 24  1  0  0  0  0
  2 25  1  0  0  0  0
  6 26  1  0  0  0  0
  6 27  1  0  0  0  0
 12 28  1  0  0  0  0
 12 29  1  0  0  0  0
 13 30  1  0  0  0  0
 13 31  1  0  0  0  0
 13 32  1  0  0  0  0
 18 33  1  0  0  0  0
 18 34  1  0  0  0  0
 18 35  1  0  0  0  0
 20 36  1  0  0  0  0
 20 37  1  0  0  0  0
 20 38  1  0  0  0  0
M  END
