 xtb: 6.7.1 (edcfbbe)
          04092507313D

 38 37  0     0  0            999 V2000
    5.1048   -3.0300   -0.7949 C   0  0  0  0  0  0  0  0  0  0  0  0
    4.4508   -2.0323    0.1483 C   0  0  0  0  0  0  0  0  0  0  0  0
    3.0198   -2.0248   -0.0142 O   0  0  0  0  0  0  0  0  0  0  0  0
    2.5032   -1.2690   -0.9593 C   0  0  0  0  0  0  0  0  0  0  0  0
    3.1426   -0.5853   -1.7302 O   0  0  0  0  0  0  0  0  0  0  0  0
    0.9888   -1.3813   -0.9957 C   0  0  0  0  0  0  0  0  0  0  0  0
    0.4108    0.0123   -1.2059 C   0  0  0  0  0  0  0  0  0  0  0  0
    0.8407    0.4390   -2.1207 H   0  0  0  0  0  0  0  0  0  0  0  0
    0.8156    0.9348   -0.0717 C   0  0  0  0  0  0  0  0  0  0  0  0
    1.8418    0.7789    0.5486 O   0  0  0  0  0  0  0  0  0  0  0  0
   -0.0325    1.9304    0.0970 O   0  0  0  0  0  0  0  0  0  0  0  0
    0.2819    2.9279    1.0900 C   0  0  0  0  0  0  0  0  0  0  0  0
    1.1315    4.0332    0.4877 C   0  0  0  0  0  0  0  0  0  0  0  0
   -1.3816    0.0078   -1.4950 S   0  0  0  0  0  0  0  0  0  0  0  0
   -2.1261    0.0566    0.4979 P   0  0  0  0  0  0  0  0  0  0  0  0
   -0.9627   -0.6025    1.9316 S   0  0  0  0  0  0  0  0  0  0  0  0
   -2.6895    1.5028    0.7873 O   0  0  0  0  0  0  0  0  0  0  0  0
   -3.6170    2.1562   -0.1047 C   0  0  0  0  0  0  0  0  0  0  0  0
   -3.4959   -0.7542    0.3388 O   0  0  0  0  0  0  0  0  0  0  0  0
   -3.5045   -2.1684    0.1118 C   0  0  0  0  0  0  0  0  0  0  0  0
    4.9461   -2.7265   -1.8270 H   0  0  0  0  0  0  0  0  0  0  0  0
    6.1709   -3.0630   -0.5965 H   0  0  0  0  0  0  0  0  0  0  0  0
    4.6801   -4.0187   -0.6446 H   0  0  0  0  0  0  0  0  0  0  0  0
    4.8226   -1.0197   -0.0332 H   0  0  0  0  0  0  0  0  0  0  0  0
    4.6020   -2.3086    1.1918 H   0  0  0  0  0  0  0  0  0  0  0  0
    0.6467   -1.8201   -0.0575 H   0  0  0  0  0  0  0  0  0  0  0  0
    0.7060   -2.0242   -1.8305 H   0  0  0  0  0  0  0  0  0  0  0  0
   -0.6891    3.2958    1.4228 H   0  0  0  0  0  0  0  0  0  0  0  0
    0.7993    2.4345    1.9180 H   0  0  0  0  0  0  0  0  0  0  0  0
    0.6244    4.4729   -0.3666 H   0  0  0  0  0  0  0  0  0  0  0  0
    1.3025    4.7980    1.2379 H   0  0  0  0  0  0  0  0  0  0  0  0
    2.0907    3.6331    0.1659 H   0  0  0  0  0  0  0  0  0  0  0  0
   -4.5470    1.5933   -0.1486 H   0  0  0  0  0  0  0  0  0  0  0  0
   -3.1793    2.2368   -1.0994 H   0  0  0  0  0  0  0  0  0  0  0  0
   -3.7808    3.1402    0.3266 H   0  0  0  0  0  0  0  0  0  0  0  0
   -3.1833   -2.3811   -0.9074 H   0  0  0  0  0  0  0  0  0  0  0  0
   -4.5341   -2.4822    0.2631 H   0  0  0  0  0  0  0  0  0  0  0  0
   -2.8463   -2.6672    0.8248 H   0  0  0  0  0  0  0  0  0  0  0  0
  1  2  1  0  0  0  0
  2  3  1  0  0  0  0
  3  4  1  0  0  0  0
  4  5  2  0  0  0  0
  4  6  1  0  0  0  0
  6  7  1  0  0  0  0
  7  8  1  0  0  0  0
  7  9  1  0  0  0  0
  9 10  2  0  0  0  0
  9 11  1  0  0  0  0
 11 12  1  0  0  0  0
 12 13  1  0  0  0  0
  7 14  1  0  0  0  0
 14 15  1  0  0  0  0
 15 16  2  0  0  0  0
 15 17  2  0  0  0  0
 17 18  1  0  0  0  0
 15 19  1  0  0  0  0
 19 20  1  0  0  0  0
  1 21  1  0  0  0  0
  1 22  1  0  0  0  0
  1 23  1  0  0  0  0
  2 24  1  0  0  0  0
  2 25  1  0  0  0  0
  6 26  1  0  0  0  0
  6 27  1  0  0  0  0
 12 28  1  0  0  0  0
 12 29  1  0  0  0  0
 13 30  1  0  0  0  0
 13 31  1  0  0  0  0
 13 32  1  0  0  0  0
 18 33  1  0  0  0  0
 18 34  1  0  0  0  0
 18 35  1  0  0  0  0
 20 36  1  0  0  0  0
 20 37  1  0  0  0  0
 20 38  1  0  0  0  0
M  END
