 xtb: 6.7.1 (edcfbbe)
          04092505213D

 41 40  0     0  0            999 V2000
    0.4515   -2.4814    2.0343 C   0  0  0  0  0  0  0  0  0  0  0  0
    1.5154   -1.4359    2.3027 C   0  0  0  0  0  0  0  0  0  0  0  0
    1.3383   -0.3017    1.4212 O   0  0  0  0  0  0  0  0  0  0  0  0
    2.2485   -0.0464    0.1564 P   0  0  0  0  0  0  0  0  0  0  0  0
    2.9965   -1.6144   -0.7573 S   0  0  0  0  0  0  0  0  0  0  0  0
    3.3431    0.9277    0.7744 O   0  0  0  0  0  0  0  0  0  0  0  0
    4.5095    1.3417    0.0340 C   0  0  0  0  0  0  0  0  0  0  0  0
    5.5829    1.7319    1.0302 C   0  0  0  0  0  0  0  0  0  0  0  0
    1.0413    1.2521   -0.9872 S   0  0  0  0  0  0  0  0  0  0  0  0
    0.3021   -0.0105   -2.0624 C   0  0  0  0  0  0  0  0  0  0  0  0
   -0.6824   -1.2281   -1.1530 S   0  0  0  0  0  0  0  0  0  0  0  0
   -2.0904    0.1305   -0.3518 P   0  0  0  0  0  0  0  0  0  0  0  0
   -2.6479    1.5930   -1.5375 S   0  0  0  0  0  0  0  0  0  0  0  0
   -1.4261    0.5337    1.0238 O   0  0  0  0  0  0  0  0  0  0  0  0
   -1.6362    1.8222    1.6329 C   0  0  0  0  0  0  0  0  0  0  0  0
   -3.0221    1.9219    2.2340 C   0  0  0  0  0  0  0  0  0  0  0  0
   -3.2558   -0.8245    0.1460 O   0  0  0  0  0  0  0  0  0  0  0  0
   -4.1868   -1.4202   -0.7812 C   0  0  0  0  0  0  0  0  0  0  0  0
   -5.3418   -1.9854    0.0202 C   0  0  0  0  0  0  0  0  0  0  0  0
   -0.5351   -2.0253    2.0710 H   0  0  0  0  0  0  0  0  0  0  0  0
    0.5945   -2.9203    1.0488 H   0  0  0  0  0  0  0  0  0  0  0  0
    0.5183   -3.2619    2.7854 H   0  0  0  0  0  0  0  0  0  0  0  0
    2.5169   -1.8514    2.1599 H   0  0  0  0  0  0  0  0  0  0  0  0
    1.4275   -1.0230    3.3088 H   0  0  0  0  0  0  0  0  0  0  0  0
    4.8346    0.5093   -0.5993 H   0  0  0  0  0  0  0  0  0  0  0  0
    4.2252    2.1859   -0.5994 H   0  0  0  0  0  0  0  0  0  0  0  0
    6.4601    2.0746    0.4913 H   0  0  0  0  0  0  0  0  0  0  0  0
    5.2197    2.5288    1.6726 H   0  0  0  0  0  0  0  0  0  0  0  0
    5.8511    0.8776    1.6454 H   0  0  0  0  0  0  0  0  0  0  0  0
    1.0890   -0.5669   -2.5702 H   0  0  0  0  0  0  0  0  0  0  0  0
   -0.3323    0.5237   -2.7691 H   0  0  0  0  0  0  0  0  0  0  0  0
   -0.8522    1.8879    2.3887 H   0  0  0  0  0  0  0  0  0  0  0  0
   -1.4827    2.5977    0.8748 H   0  0  0  0  0  0  0  0  0  0  0  0
   -3.1854    1.1125    2.9402 H   0  0  0  0  0  0  0  0  0  0  0  0
   -3.1290    2.8755    2.7413 H   0  0  0  0  0  0  0  0  0  0  0  0
   -3.7679    1.8549    1.4425 H   0  0  0  0  0  0  0  0  0  0  0  0
   -4.5208   -0.6479   -1.4822 H   0  0  0  0  0  0  0  0  0  0  0  0
   -3.6640   -2.2039   -1.3365 H   0  0  0  0  0  0  0  0  0  0  0  0
   -5.8488   -1.1906    0.5597 H   0  0  0  0  0  0  0  0  0  0  0  0
   -6.0431   -2.4637   -0.6556 H   0  0  0  0  0  0  0  0  0  0  0  0
   -4.9732   -2.7164    0.7338 H   0  0  0  0  0  0  0  0  0  0  0  0
  1  2  1  0  0  0  0
  2  3  1  0  0  0  0
  3  4  2  0  0  0  0
  4  5  2  0  0  0  0
  4  6  2  0  0  0  0
  6  7  1  0  0  0  0
  7  8  1  0  0  0  0
  4  9  1  0  0  0  0
  9 10  1  0  0  0  0
 10 11  1  0  0  0  0
 11 12  1  0  0  0  0
 12 13  2  0  0  0  0
 12 14  2  0  0  0  0
 14 15  1  0  0  0  0
 15 16  1  0  0  0  0
 12 17  2  0  0  0  0
 17 18  1  0  0  0  0
 18 19  1  0  0  0  0
  1 20  1  0  0  0  0
  1 21  1  0  0  0  0
  1 22  1  0  0  0  0
  2 23  1  0  0  0  0
  2 24  1  0  0  0  0
  7 25  1  0  0  0  0
  7 26  1  0  0  0  0
  8 27  1  0  0  0  0
  8 28  1  0  0  0  0
  8 29  1  0  0  0  0
 10 30  1  0  0  0  0
 10 31  1  0  0  0  0
 15 32  1  0  0  0  0
 15 33  1  0  0  0  0
 16 34  1  0  0  0  0
 16 35  1  0  0  0  0
 16 36  1  0  0  0  0
 18 37  1  0  0  0  0
 18 38  1  0  0  0  0
 19 39  1  0  0  0  0
 19 40  1  0  0  0  0
 19 41  1  0  0  0  0
M  END
