  21
 
 C         -3.4561778873        0.3512239295        0.2195519542
 C         -2.0646014421        0.3756173872       -0.3195614150
 O         -1.7254636248        0.0156884942       -1.4250332622
 O         -1.2083194794        0.8779859862        0.5827775776
 C          0.1590241897        0.8634971750        0.3378518909
 C          0.8376782949        2.0682081375        0.4384378778
 C          2.2044372158        2.1100022429        0.2245047907
 C          2.8937120462        0.9540437381       -0.1081736891
 C          2.2195508970       -0.2471715225       -0.2099315034
 C          0.8454546739       -0.3133900474        0.0217285704
 C          0.1478358739       -1.6167302881       -0.0350825351
 O         -0.8895366157       -1.8720218816        0.5501949274
 O          0.7821300401       -2.5147710935       -0.7697289065
 H         -3.5825545099       -0.5996776589        0.7362279004
 H         -4.1696789816        0.4082731941       -0.5962550373
 H         -3.5954266086        1.1568463653        0.9330026624
 H          0.2799065362        2.9574005335        0.6839583044
 H          2.7266391765        3.0493145645        0.3102539117
 H          3.9562581306        0.9884422194       -0.2858647619
 H          2.7436367815       -1.1559644850       -0.4585485995
 H          0.3137606727       -3.3721129334       -0.7924325104
          21
        -39.65209413
 C         -3.2464381365        1.1745771391        0.1937800704
 C         -1.9035246912        0.7893751144       -0.3319320003
 O         -1.6899607833        0.1973074791       -1.3666452335
 O         -0.9279272387        1.2068021868        0.4885314539
 C          0.3901535574        0.8335833546        0.2571861365
 C          1.3351213968        1.8446657151        0.1742218494
 C          2.6660009617        1.5292942235       -0.0366920538
 C          3.0542013045        0.2064996075       -0.1842617143
 C          2.1145626276       -0.8024089684       -0.1026574245
 C          0.7714041357       -0.5060398574        0.1300545551
 C         -0.2136774374       -1.6010137437        0.2722638519
 O         -1.2624309624       -1.5119343720        0.8852299275
 O          0.1688660200       -2.7232712304       -0.3123507231
 H         -3.9589151989        1.2346252402       -0.6222405374
 H         -3.1803729243        2.1101550822        0.7392828007
 H         -3.5575227705        0.3905383825        0.8829846239
 H          1.0088292010        2.8669885510        0.2766858256
 H          3.3965975819        2.3200305012       -0.0937808715
 H          4.0890150775       -0.0385621193       -0.3595554456
 H          2.4029849681       -1.8361274849       -0.2054579848
 H         -0.4856341977       -3.4408504050       -0.2052591981
