 xtb: 6.7.1 (edcfbbe)
          04092505213D

 41 40  0     0  0            999 V2000
    2.1275    2.0368   -1.6167 C   0  0  0  0  0  0  0  0  0  0  0  0
    2.4263    2.4000   -0.1770 C   0  0  0  0  0  0  0  0  0  0  0  0
    1.8017    1.4983    0.7711 O   0  0  0  0  0  0  0  0  0  0  0  0
    2.1358   -0.0378    0.9234 P   0  0  0  0  0  0  0  0  0  0  0  0
    1.6542   -0.6763    2.7094 S   0  0  0  0  0  0  0  0  0  0  0  0
    3.6712   -0.0578    0.5094 O   0  0  0  0  0  0  0  0  0  0  0  0
    4.4445   -1.2593    0.3343 C   0  0  0  0  0  0  0  0  0  0  0  0
    4.9331   -1.8171    1.6565 C   0  0  0  0  0  0  0  0  0  0  0  0
    1.1894   -1.0820   -0.6895 S   0  0  0  0  0  0  0  0  0  0  0  0
   -0.0657   -1.9992    0.2301 C   0  0  0  0  0  0  0  0  0  0  0  0
   -1.3805   -0.9617    0.9261 S   0  0  0  0  0  0  0  0  0  0  0  0
   -1.9923   -0.0041   -0.8843 P   0  0  0  0  0  0  0  0  0  0  0  0
   -1.7567   -1.0188   -2.5359 S   0  0  0  0  0  0  0  0  0  0  0  0
   -1.2572    1.3922   -0.8952 O   0  0  0  0  0  0  0  0  0  0  0  0
   -1.4567    2.3724    0.1551 C   0  0  0  0  0  0  0  0  0  0  0  0
   -2.4085    3.4542   -0.3093 C   0  0  0  0  0  0  0  0  0  0  0  0
   -3.4889    0.4096   -0.5470 O   0  0  0  0  0  0  0  0  0  0  0  0
   -4.5398   -0.5780   -0.5129 C   0  0  0  0  0  0  0  0  0  0  0  0
   -5.8660    0.1537   -0.5487 C   0  0  0  0  0  0  0  0  0  0  0  0
    2.5262    2.8093   -2.2669 H   0  0  0  0  0  0  0  0  0  0  0  0
    2.5901    1.0855   -1.8747 H   0  0  0  0  0  0  0  0  0  0  0  0
    1.0553    1.9520   -1.7811 H   0  0  0  0  0  0  0  0  0  0  0  0
    2.0082    3.3728    0.0877 H   0  0  0  0  0  0  0  0  0  0  0  0
    3.5013    2.3980    0.0099 H   0  0  0  0  0  0  0  0  0  0  0  0
    3.8404   -1.9938   -0.2062 H   0  0  0  0  0  0  0  0  0  0  0  0
    5.2809   -0.9437   -0.2928 H   0  0  0  0  0  0  0  0  0  0  0  0
    4.0928   -2.1222    2.2759 H   0  0  0  0  0  0  0  0  0  0  0  0
    5.5668   -2.6778    1.4682 H   0  0  0  0  0  0  0  0  0  0  0  0
    5.5015   -1.0631    2.1942 H   0  0  0  0  0  0  0  0  0  0  0  0
    0.3882   -2.5073    1.0800 H   0  0  0  0  0  0  0  0  0  0  0  0
   -0.4966   -2.7023   -0.4810 H   0  0  0  0  0  0  0  0  0  0  0  0
   -1.8318    1.8655    1.0489 H   0  0  0  0  0  0  0  0  0  0  0  0
   -0.4625    2.7715    0.3628 H   0  0  0  0  0  0  0  0  0  0  0  0
   -3.3882    3.0289   -0.5100 H   0  0  0  0  0  0  0  0  0  0  0  0
   -2.4955    4.2070    0.4679 H   0  0  0  0  0  0  0  0  0  0  0  0
   -2.0329    3.9153   -1.2184 H   0  0  0  0  0  0  0  0  0  0  0  0
   -4.4219   -1.2398   -1.3771 H   0  0  0  0  0  0  0  0  0  0  0  0
   -4.4290   -1.1626    0.4044 H   0  0  0  0  0  0  0  0  0  0  0  0
   -5.9480    0.7334   -1.4636 H   0  0  0  0  0  0  0  0  0  0  0  0
   -6.6724   -0.5712   -0.5116 H   0  0  0  0  0  0  0  0  0  0  0  0
   -5.9455    0.8228    0.3031 H   0  0  0  0  0  0  0  0  0  0  0  0
  1  2  1  0  0  0  0
  2  3  1  0  0  0  0
  3  4  2  0  0  0  0
  4  5  2  0  0  0  0
  4  6  2  0  0  0  0
  6  7  1  0  0  0  0
  7  8  1  0  0  0  0
  4  9  1  0  0  0  0
  9 10  1  0  0  0  0
 10 11  1  0  0  0  0
 11 12  1  0  0  0  0
 12 13  2  0  0  0  0
 12 14  2  0  0  0  0
 14 15  1  0  0  0  0
 15 16  1  0  0  0  0
 12 17  2  0  0  0  0
 17 18  1  0  0  0  0
 18 19  1  0  0  0  0
  1 20  1  0  0  0  0
  1 21  1  0  0  0  0
  1 22  1  0  0  0  0
  2 23  1  0  0  0  0
  2 24  1  0  0  0  0
  7 25  1  0  0  0  0
  7 26  1  0  0  0  0
  8 27  1  0  0  0  0
  8 28  1  0  0  0  0
  8 29  1  0  0  0  0
 10 30  1  0  0  0  0
 10 31  1  0  0  0  0
 15 32  1  0  0  0  0
 15 33  1  0  0  0  0
 16 34  1  0  0  0  0
 16 35  1  0  0  0  0
 16 36  1  0  0  0  0
 18 37  1  0  0  0  0
 18 38  1  0  0  0  0
 19 39  1  0  0  0  0
 19 40  1  0  0  0  0
 19 41  1  0  0  0  0
M  END
