 xtb: 6.7.1 (edcfbbe)
          04092505213D

 41 40  0     0  0            999 V2000
    5.3799    0.1365   -0.8792 C   0  0  0  0  0  0  0  0  0  0  0  0
    3.9599    0.2054   -1.4023 C   0  0  0  0  0  0  0  0  0  0  0  0
    3.0696    0.7612   -0.4003 O   0  0  0  0  0  0  0  0  0  0  0  0
    2.2108   -0.1176    0.5900 P   0  0  0  0  0  0  0  0  0  0  0  0
    1.3951    0.9518    2.0084 S   0  0  0  0  0  0  0  0  0  0  0  0
    3.2431   -1.2137    1.0998 O   0  0  0  0  0  0  0  0  0  0  0  0
    3.0042   -2.0009    2.2798 C   0  0  0  0  0  0  0  0  0  0  0  0
    1.8372   -2.9492    2.1001 C   0  0  0  0  0  0  0  0  0  0  0  0
    0.9259   -1.2501   -0.7005 S   0  0  0  0  0  0  0  0  0  0  0  0
    0.2896    0.1095   -1.7200 C   0  0  0  0  0  0  0  0  0  0  0  0
   -0.6596    1.3479   -0.8066 S   0  0  0  0  0  0  0  0  0  0  0  0
   -2.5663    0.3756   -0.7762 P   0  0  0  0  0  0  0  0  0  0  0  0
   -2.7686   -1.0349   -2.1171 S   0  0  0  0  0  0  0  0  0  0  0  0
   -3.6399    1.5000   -1.0231 O   0  0  0  0  0  0  0  0  0  0  0  0
   -4.0565    2.5082   -0.0709 C   0  0  0  0  0  0  0  0  0  0  0  0
   -2.9303    3.4412    0.3207 C   0  0  0  0  0  0  0  0  0  0  0  0
   -2.8526    0.0202    0.7499 O   0  0  0  0  0  0  0  0  0  0  0  0
   -2.0546   -0.8240    1.5930 C   0  0  0  0  0  0  0  0  0  0  0  0
   -2.1245   -2.2818    1.1847 C   0  0  0  0  0  0  0  0  0  0  0  0
    6.0350   -0.1996   -1.6771 H   0  0  0  0  0  0  0  0  0  0  0  0
    5.6997    1.1186   -0.5419 H   0  0  0  0  0  0  0  0  0  0  0  0
    5.4426   -0.5585   -0.0466 H   0  0  0  0  0  0  0  0  0  0  0  0
    3.5991   -0.7847   -1.6934 H   0  0  0  0  0  0  0  0  0  0  0  0
    3.8856    0.8943   -2.2465 H   0  0  0  0  0  0  0  0  0  0  0  0
    3.9418   -2.5372    2.4317 H   0  0  0  0  0  0  0  0  0  0  0  0
    2.8226   -1.3202    3.1174 H   0  0  0  0  0  0  0  0  0  0  0  0
    0.9146   -2.3803    1.9949 H   0  0  0  0  0  0  0  0  0  0  0  0
    1.9750   -3.5582    1.2102 H   0  0  0  0  0  0  0  0  0  0  0  0
    1.7581   -3.5926    2.9703 H   0  0  0  0  0  0  0  0  0  0  0  0
   -0.3591   -0.3595   -2.4633 H   0  0  0  0  0  0  0  0  0  0  0  0
    1.1147    0.6391   -2.1888 H   0  0  0  0  0  0  0  0  0  0  0  0
   -4.8478    3.0378   -0.6039 H   0  0  0  0  0  0  0  0  0  0  0  0
   -4.4692    2.0030    0.8040 H   0  0  0  0  0  0  0  0  0  0  0  0
   -2.4787    3.8848   -0.5633 H   0  0  0  0  0  0  0  0  0  0  0  0
   -3.3259    4.2297    0.9535 H   0  0  0  0  0  0  0  0  0  0  0  0
   -2.1599    2.9043    0.8733 H   0  0  0  0  0  0  0  0  0  0  0  0
   -1.0235   -0.4539    1.5913 H   0  0  0  0  0  0  0  0  0  0  0  0
   -2.4810   -0.6705    2.5864 H   0  0  0  0  0  0  0  0  0  0  0  0
   -3.1626   -2.5919    1.0948 H   0  0  0  0  0  0  0  0  0  0  0  0
   -1.6327   -2.4393    0.2265 H   0  0  0  0  0  0  0  0  0  0  0  0
   -1.6341   -2.8896    1.9384 H   0  0  0  0  0  0  0  0  0  0  0  0
  1  2  1  0  0  0  0
  2  3  1  0  0  0  0
  3  4  2  0  0  0  0
  4  5  2  0  0  0  0
  4  6  2  0  0  0  0
  6  7  1  0  0  0  0
  7  8  1  0  0  0  0
  4  9  1  0  0  0  0
  9 10  1  0  0  0  0
 10 11  1  0  0  0  0
 11 12  1  0  0  0  0
 12 13  2  0  0  0  0
 12 14  2  0  0  0  0
 14 15  1  0  0  0  0
 15 16  1  0  0  0  0
 12 17  2  0  0  0  0
 17 18  1  0  0  0  0
 18 19  1  0  0  0  0
  1 20  1  0  0  0  0
  1 21  1  0  0  0  0
  1 22  1  0  0  0  0
  2 23  1  0  0  0  0
  2 24  1  0  0  0  0
  7 25  1  0  0  0  0
  7 26  1  0  0  0  0
  8 27  1  0  0  0  0
  8 28  1  0  0  0  0
  8 29  1  0  0  0  0
 10 30  1  0  0  0  0
 10 31  1  0  0  0  0
 15 32  1  0  0  0  0
 15 33  1  0  0  0  0
 16 34  1  0  0  0  0
 16 35  1  0  0  0  0
 16 36  1  0  0  0  0
 18 37  1  0  0  0  0
 18 38  1  0  0  0  0
 19 39  1  0  0  0  0
 19 40  1  0  0  0  0
 19 41  1  0  0  0  0
M  END
