 xtb: 6.7.1 (edcfbbe)
          04032521593D

 27 27  0     0  0            999 V2000
    2.9835   -1.8437   -0.2724 C   0  0  0  0  0  0  0  0  0  0  0  0
    1.6786   -1.1660   -0.0875 C   0  0  0  0  0  0  0  0  0  0  0  0
    1.5084    0.1790   -0.0568 C   0  0  0  0  0  0  0  0  0  0  0  0
    0.2125    0.7937    0.1351 C   0  0  0  0  0  0  0  0  0  0  0  0
    0.0838    1.9851    0.3807 O   0  0  0  0  0  0  0  0  0  0  0  0
   -0.8754   -0.0776    0.0169 N   0  0  0  0  0  0  0  0  0  0  0  0
   -0.7109   -1.4266    0.2656 C   0  0  0  0  0  0  0  0  0  0  0  0
   -1.5944   -2.1882    0.6141 O   0  0  0  0  0  0  0  0  0  0  0  0
    0.5616   -1.9194    0.0997 N   0  0  0  0  0  0  0  0  0  0  0  0
   -2.2537    0.4879   -0.1466 C   0  0  0  0  0  0  0  0  0  0  0  0
   -2.2034    1.7011   -1.0834 C   0  0  0  0  0  0  0  0  0  0  0  0
   -3.1802   -0.5313   -0.8186 C   0  0  0  0  0  0  0  0  0  0  0  0
   -2.7842    0.8767    1.2321 C   0  0  0  0  0  0  0  0  0  0  0  0
    2.8492    1.2666   -0.1740 Cl  0  0  0  0  0  0  0  0  0  0  0  0
    3.6957   -1.4728    0.4610 H   0  0  0  0  0  0  0  0  0  0  0  0
    3.3835   -1.5980   -1.2538 H   0  0  0  0  0  0  0  0  0  0  0  0
    2.8845   -2.9193   -0.1791 H   0  0  0  0  0  0  0  0  0  0  0  0
    0.6494   -2.9232    0.2260 H   0  0  0  0  0  0  0  0  0  0  0  0
   -3.2196    2.0093   -1.3076 H   0  0  0  0  0  0  0  0  0  0  0  0
   -1.6836    2.5417   -0.6368 H   0  0  0  0  0  0  0  0  0  0  0  0
   -1.7050    1.4379   -2.0139 H   0  0  0  0  0  0  0  0  0  0  0  0
   -4.1088   -0.0316   -1.0763 H   0  0  0  0  0  0  0  0  0  0  0  0
   -3.4100   -1.3669   -0.1675 H   0  0  0  0  0  0  0  0  0  0  0  0
   -2.7268   -0.9131   -1.7303 H   0  0  0  0  0  0  0  0  0  0  0  0
   -3.7811    1.2956    1.1387 H   0  0  0  0  0  0  0  0  0  0  0  0
   -2.8277   -0.0009    1.8732 H   0  0  0  0  0  0  0  0  0  0  0  0
   -2.1313    1.6187    1.6864 H   0  0  0  0  0  0  0  0  0  0  0  0
  1  2  1  0  0  0  0
  2  3  2  0  0  0  0
  3  4  1  0  0  0  0
  4  5  2  0  0  0  0
  4  6  1  0  0  0  0
  6  7  1  0  0  0  0
  7  8  2  0  0  0  0
  2  9  1  0  0  0  0
  7  9  1  0  0  0  0
  6 10  1  0  0  0  0
 10 11  1  0  0  0  0
 10 12  1  0  0  0  0
 10 13  1  0  0  0  0
  3 14  1  0  0  0  0
  1 15  1  0  0  0  0
  1 16  1  0  0  0  0
  1 17  1  0  0  0  0
  9 18  1  0  0  0  0
 11 19  1  0  0  0  0
 11 20  1  0  0  0  0
 11 21  1  0  0  0  0
 12 22  1  0  0  0  0
 12 23  1  0  0  0  0
 12 24  1  0  0  0  0
 13 25  1  0  0  0  0
 13 26  1  0  0  0  0
 13 27  1  0  0  0  0
M  END
