 xtb: 6.7.1 (edcfbbe)
          04092513593D

 41 40  0     0  0            999 V2000
    5.2348   -2.5202   -1.0491 C   0  0  0  0  0  0  0  0  0  0  0  0
    4.2163   -1.4388   -1.3501 C   0  0  0  0  0  0  0  0  0  0  0  0
    3.2763   -1.4010   -0.2574 O   0  0  0  0  0  0  0  0  0  0  0  0
    2.2908   -0.1769   -0.0376 P   0  0  0  0  0  0  0  0  0  0  0  0
    3.1292    1.6005   -0.0763 S   0  0  0  0  0  0  0  0  0  0  0  0
    1.5629   -0.5789    1.3063 O   0  0  0  0  0  0  0  0  0  0  0  0
    1.9946   -0.0921    2.5954 C   0  0  0  0  0  0  0  0  0  0  0  0
    3.2887   -0.7452    3.0320 C   0  0  0  0  0  0  0  0  0  0  0  0
    0.7657   -0.5158   -1.4623 S   0  0  0  0  0  0  0  0  0  0  0  0
   -0.0079    1.1210   -1.3382 C   0  0  0  0  0  0  0  0  0  0  0  0
   -0.9385    1.3557    0.1922 S   0  0  0  0  0  0  0  0  0  0  0  0
   -2.8273    0.5454   -0.4186 P   0  0  0  0  0  0  0  0  0  0  0  0
   -3.0857    0.5179   -2.3601 S   0  0  0  0  0  0  0  0  0  0  0  0
   -3.9061    1.4190    0.3195 O   0  0  0  0  0  0  0  0  0  0  0  0
   -4.3175    1.2573    1.7016 C   0  0  0  0  0  0  0  0  0  0  0  0
   -3.1843    1.5016    2.6742 C   0  0  0  0  0  0  0  0  0  0  0  0
   -3.0052   -0.8612    0.3059 O   0  0  0  0  0  0  0  0  0  0  0  0
   -2.3611   -2.0709   -0.1371 C   0  0  0  0  0  0  0  0  0  0  0  0
   -1.3673   -2.5401    0.9074 C   0  0  0  0  0  0  0  0  0  0  0  0
    5.7740   -2.2852   -0.1359 H   0  0  0  0  0  0  0  0  0  0  0  0
    4.7338   -3.4759   -0.9268 H   0  0  0  0  0  0  0  0  0  0  0  0
    5.9384   -2.5858   -1.8727 H   0  0  0  0  0  0  0  0  0  0  0  0
    3.6657   -1.6551   -2.2698 H   0  0  0  0  0  0  0  0  0  0  0  0
    4.6883   -0.4546   -1.4399 H   0  0  0  0  0  0  0  0  0  0  0  0
    2.1057    0.9952    2.5367 H   0  0  0  0  0  0  0  0  0  0  0  0
    1.1684   -0.3437    3.2612 H   0  0  0  0  0  0  0  0  0  0  0  0
    4.0965   -0.4489    2.3643 H   0  0  0  0  0  0  0  0  0  0  0  0
    3.5297   -0.4254    4.0412 H   0  0  0  0  0  0  0  0  0  0  0  0
    3.1912   -1.8272    3.0077 H   0  0  0  0  0  0  0  0  0  0  0  0
   -0.6849    1.2148   -2.1897 H   0  0  0  0  0  0  0  0  0  0  0  0
    0.7704    1.8839   -1.3610 H   0  0  0  0  0  0  0  0  0  0  0  0
   -5.1109    1.9979    1.8114 H   0  0  0  0  0  0  0  0  0  0  0  0
   -4.7263    0.2523    1.8192 H   0  0  0  0  0  0  0  0  0  0  0  0
   -2.4074    0.7508    2.5430 H   0  0  0  0  0  0  0  0  0  0  0  0
   -2.7489    2.4845    2.5129 H   0  0  0  0  0  0  0  0  0  0  0  0
   -3.5680    1.4410    3.6881 H   0  0  0  0  0  0  0  0  0  0  0  0
   -3.1660   -2.7969   -0.2700 H   0  0  0  0  0  0  0  0  0  0  0  0
   -1.8775   -1.8960   -1.1035 H   0  0  0  0  0  0  0  0  0  0  0  0
   -1.8704   -2.6884    1.8587 H   0  0  0  0  0  0  0  0  0  0  0  0
   -0.9297   -3.4781    0.5816 H   0  0  0  0  0  0  0  0  0  0  0  0
   -0.5717   -1.8100    1.0370 H   0  0  0  0  0  0  0  0  0  0  0  0
  1  2  1  0  0  0  0
  2  3  1  0  0  0  0
  3  4  2  0  0  0  0
  4  5  2  0  0  0  0
  4  6  2  0  0  0  0
  6  7  1  0  0  0  0
  7  8  1  0  0  0  0
  4  9  1  0  0  0  0
  9 10  1  0  0  0  0
 10 11  1  0  0  0  0
 11 12  1  0  0  0  0
 12 13  2  0  0  0  0
 12 14  2  0  0  0  0
 14 15  1  0  0  0  0
 15 16  1  0  0  0  0
 12 17  2  0  0  0  0
 17 18  1  0  0  0  0
 18 19  1  0  0  0  0
  1 20  1  0  0  0  0
  1 21  1  0  0  0  0
  1 22  1  0  0  0  0
  2 23  1  0  0  0  0
  2 24  1  0  0  0  0
  7 25  1  0  0  0  0
  7 26  1  0  0  0  0
  8 27  1  0  0  0  0
  8 28  1  0  0  0  0
  8 29  1  0  0  0  0
 10 30  1  0  0  0  0
 10 31  1  0  0  0  0
 15 32  1  0  0  0  0
 15 33  1  0  0  0  0
 16 34  1  0  0  0  0
 16 35  1  0  0  0  0
 16 36  1  0  0  0  0
 18 37  1  0  0  0  0
 18 38  1  0  0  0  0
 19 39  1  0  0  0  0
 19 40  1  0  0  0  0
 19 41  1  0  0  0  0
M  END
