 xtb: 6.7.1 (edcfbbe)
          04092514033D

 41 40  0     0  0            999 V2000
    3.5426    2.3874   -1.6436 C   0  0  0  0  0  0  0  0  0  0  0  0
    4.1874    1.8521   -0.3809 C   0  0  0  0  0  0  0  0  0  0  0  0
    3.7901    0.4986   -0.1119 O   0  0  0  0  0  0  0  0  0  0  0  0
    2.3536    0.0977    0.4510 P   0  0  0  0  0  0  0  0  0  0  0  0
    1.6606    1.3581    1.7878 S   0  0  0  0  0  0  0  0  0  0  0  0
    2.6182   -1.3830    0.9370 O   0  0  0  0  0  0  0  0  0  0  0  0
    2.8094   -1.7585    2.3213 C   0  0  0  0  0  0  0  0  0  0  0  0
    2.0368   -3.0350    2.5859 C   0  0  0  0  0  0  0  0  0  0  0  0
    1.2176   -0.2729   -1.3017 S   0  0  0  0  0  0  0  0  0  0  0  0
    0.1686   -1.6497   -0.7504 C   0  0  0  0  0  0  0  0  0  0  0  0
   -0.9263   -1.2687    0.6486 S   0  0  0  0  0  0  0  0  0  0  0  0
   -2.2879   -0.0285   -0.3648 P   0  0  0  0  0  0  0  0  0  0  0  0
   -2.7196   -0.4623   -2.2307 S   0  0  0  0  0  0  0  0  0  0  0  0
   -1.5872    1.3694   -0.1193 O   0  0  0  0  0  0  0  0  0  0  0  0
   -2.0044    2.5857   -0.7803 C   0  0  0  0  0  0  0  0  0  0  0  0
   -0.7796    3.2716   -1.3513 C   0  0  0  0  0  0  0  0  0  0  0  0
   -3.5528    0.0704    0.5970 O   0  0  0  0  0  0  0  0  0  0  0  0
   -4.7297   -0.7481    0.4629 C   0  0  0  0  0  0  0  0  0  0  0  0
   -4.4885   -2.1823    0.8879 C   0  0  0  0  0  0  0  0  0  0  0  0
    3.9186    3.3855   -1.8455 H   0  0  0  0  0  0  0  0  0  0  0  0
    3.7657    1.7396   -2.4871 H   0  0  0  0  0  0  0  0  0  0  0  0
    2.4611    2.4336   -1.5168 H   0  0  0  0  0  0  0  0  0  0  0  0
    3.9223    2.4703    0.4836 H   0  0  0  0  0  0  0  0  0  0  0  0
    5.2729    1.7969   -0.4773 H   0  0  0  0  0  0  0  0  0  0  0  0
    3.8819   -1.9009    2.4706 H   0  0  0  0  0  0  0  0  0  0  0  0
    2.4610   -0.9406    2.9613 H   0  0  0  0  0  0  0  0  0  0  0  0
    0.9739   -2.8711    2.4194 H   0  0  0  0  0  0  0  0  0  0  0  0
    2.3836   -3.8249    1.9257 H   0  0  0  0  0  0  0  0  0  0  0  0
    2.1939   -3.3373    3.6163 H   0  0  0  0  0  0  0  0  0  0  0  0
    0.7949   -2.4796   -0.4341 H   0  0  0  0  0  0  0  0  0  0  0  0
   -0.4336   -1.9148   -1.6202 H   0  0  0  0  0  0  0  0  0  0  0  0
   -2.7235    2.3388   -1.5688 H   0  0  0  0  0  0  0  0  0  0  0  0
   -2.4917    3.2020   -0.0219 H   0  0  0  0  0  0  0  0  0  0  0  0
   -0.0447    3.4186   -0.5633 H   0  0  0  0  0  0  0  0  0  0  0  0
   -0.3401    2.6599   -2.1364 H   0  0  0  0  0  0  0  0  0  0  0  0
   -1.0644    4.2347   -1.7622 H   0  0  0  0  0  0  0  0  0  0  0  0
   -5.4604   -0.2573    1.1079 H   0  0  0  0  0  0  0  0  0  0  0  0
   -5.0648   -0.7055   -0.5784 H   0  0  0  0  0  0  0  0  0  0  0  0
   -4.0544   -2.2146    1.8839 H   0  0  0  0  0  0  0  0  0  0  0  0
   -5.4351   -2.7142    0.8916 H   0  0  0  0  0  0  0  0  0  0  0  0
   -3.8103   -2.6721    0.1909 H   0  0  0  0  0  0  0  0  0  0  0  0
  1  2  1  0  0  0  0
  2  3  1  0  0  0  0
  3  4  2  0  0  0  0
  4  5  2  0  0  0  0
  4  6  2  0  0  0  0
  6  7  1  0  0  0  0
  7  8  1  0  0  0  0
  4  9  1  0  0  0  0
  9 10  1  0  0  0  0
 10 11  1  0  0  0  0
 11 12  1  0  0  0  0
 12 13  2  0  0  0  0
 12 14  2  0  0  0  0
 14 15  1  0  0  0  0
 15 16  1  0  0  0  0
 12 17  2  0  0  0  0
 17 18  1  0  0  0  0
 18 19  1  0  0  0  0
  1 20  1  0  0  0  0
  1 21  1  0  0  0  0
  1 22  1  0  0  0  0
  2 23  1  0  0  0  0
  2 24  1  0  0  0  0
  7 25  1  0  0  0  0
  7 26  1  0  0  0  0
  8 27  1  0  0  0  0
  8 28  1  0  0  0  0
  8 29  1  0  0  0  0
 10 30  1  0  0  0  0
 10 31  1  0  0  0  0
 15 32  1  0  0  0  0
 15 33  1  0  0  0  0
 16 34  1  0  0  0  0
 16 35  1  0  0  0  0
 16 36  1  0  0  0  0
 18 37  1  0  0  0  0
 18 38  1  0  0  0  0
 19 39  1  0  0  0  0
 19 40  1  0  0  0  0
 19 41  1  0  0  0  0
M  END
