  20
 
 C          4.1760480497        0.2326953339       -0.0029599663
 C          2.8491547725       -0.5177813408       -0.0068577684
 C          1.6594408942        0.4390903473        0.0013645322
 C          0.3265046679       -0.3049507801        0.0052025160
 C         -0.8573808104        0.6599331496        0.0046738129
 C         -2.1811745057       -0.0616667616        0.0028149923
 O         -2.3027324769       -1.2645455919        0.0036393173
 O         -3.2679976270        0.7129579846        0.0002730684
 H          5.0097998650       -0.4648576307       -0.0084299903
 H          4.2558734696        0.8699784851       -0.8807019424
 H          4.2575668093        0.8580874210        0.8831589706
 H          2.7937108625       -1.1547408816       -0.8924267021
 H          2.7957038089       -1.1679469510        0.8691689176
 H          1.7212406352        1.0772842305        0.8856400097
 H          1.7138630012        1.0822889670       -0.8797889948
 H          0.2585155571       -0.9537224529       -0.8704507274
 H          0.2615110750       -0.9493382273        0.8843020626
 H         -0.8125408650        1.3000845677       -0.8798182650
 H         -0.8141858464        1.2992086225        0.8898662895
 H         -3.0738196180        1.6682229399       -0.0006418194
          20
        -27.12138623
 C          4.1676257004        0.2246009850        0.0045870061
 C          2.8360133729       -0.5171937412       -0.0082718614
 C          1.6503665217        0.4446699761        0.0031945416
 C          0.3168135049       -0.2983836272       -0.0044940338
 C         -0.8687212933        0.6639902698        0.0029623303
 C         -2.1900632396       -0.0629923753        0.0011106356
 O         -2.3068650427       -1.2663903853        0.0050582912
 O         -3.2801146885        0.7070101624       -0.0041431777
 H          4.9961679517       -0.4789755560       -0.0089147766
 H          4.2521213263        0.8714053597       -0.8657257376
 H          4.2532390485        0.8388608358        0.8980339976
 H          2.7791669650       -1.1478973052       -0.8981460633
 H          2.7760953168       -1.1728068747        0.8632103550
 H          1.7103527877        1.0751062559        0.8930026095
 H          1.7095587320        1.0949571926       -0.8722961256
 H          0.2519043854       -0.9372831287       -0.8875283530
 H          0.2504485652       -0.9527743103        0.8670001473
 H         -0.8279705262        1.3097260685       -0.8775797416
 H         -0.8258745619        1.2976641850        0.8922480383
 H         -3.0903887510        1.6631230273       -0.0069700535
          20
        -27.12913973
 C          3.5724419837        0.8079536883       -0.4101912261
 C          2.6373833711       -0.1605599826        0.3042137759
 C          1.2326662444       -0.1374993488       -0.2939747489
 C          0.2934155429       -1.1108002065        0.4152730199
 C         -1.1038201427       -1.1063208172       -0.2012028833
 C         -1.8562228166        0.1674444954        0.0748116240
 O         -1.6633020100        0.9122725361        1.0113669332
 O         -2.8030314905        0.3920725995       -0.8264270864
 H          3.1924333481        1.8245512653       -0.3381002414
 H          4.5644784935        0.7794716023        0.0333342581
 H          3.6579454023        0.5484208113       -1.4628983701
 H          3.0414984951       -1.1728241994        0.2349315790
 H          2.5804977653        0.1028623957        1.3625593038
 H          0.8250660135        0.8733228762       -0.2148459474
 H          1.2893430906       -0.3938922773       -1.3545812426
 H          0.7050970237       -2.1191256099        0.3575595759
 H          0.2145130067       -0.8316263201        1.4678195235
 H         -1.7026762709       -1.9150482987        0.2249997474
 H         -1.0659390247       -1.2539529882       -1.2808429719
 H         -3.3169894526        1.2020356995       -0.6420589856
