 xtb: 6.7.1 (edcfbbe)
          04092513573D

 41 40  0     0  0            999 V2000
    1.1163   -0.0466    2.8898 C   0  0  0  0  0  0  0  0  0  0  0  0
    2.6184   -0.0600    2.6941 C   0  0  0  0  0  0  0  0  0  0  0  0
    3.0075    0.5658    1.4594 O   0  0  0  0  0  0  0  0  0  0  0  0
    2.7355   -0.0946    0.0390 P   0  0  0  0  0  0  0  0  0  0  0  0
    2.9352   -2.0485   -0.0203 S   0  0  0  0  0  0  0  0  0  0  0  0
    3.7108    0.7335   -0.8936 O   0  0  0  0  0  0  0  0  0  0  0  0
    5.0912    0.3604   -1.0947 C   0  0  0  0  0  0  0  0  0  0  0  0
    5.9247    0.5288    0.1590 C   0  0  0  0  0  0  0  0  0  0  0  0
    0.9075    0.7332   -0.6547 S   0  0  0  0  0  0  0  0  0  0  0  0
    0.0331   -0.7924   -1.1188 C   0  0  0  0  0  0  0  0  0  0  0  0
   -1.2682   -1.2415    0.0523 S   0  0  0  0  0  0  0  0  0  0  0  0
   -2.7064    0.1821   -0.6297 P   0  0  0  0  0  0  0  0  0  0  0  0
   -2.8214    0.3696   -2.5724 S   0  0  0  0  0  0  0  0  0  0  0  0
   -2.3785    1.5438    0.0807 O   0  0  0  0  0  0  0  0  0  0  0  0
   -2.2777    1.6783    1.5236 C   0  0  0  0  0  0  0  0  0  0  0  0
   -1.4063    2.8826    1.8121 C   0  0  0  0  0  0  0  0  0  0  0  0
   -4.0313   -0.2760    0.1165 O   0  0  0  0  0  0  0  0  0  0  0  0
   -4.7621   -1.4567   -0.2781 C   0  0  0  0  0  0  0  0  0  0  0  0
   -6.1417   -1.3757    0.3440 C   0  0  0  0  0  0  0  0  0  0  0  0
    0.8794   -0.4314    3.8765 H   0  0  0  0  0  0  0  0  0  0  0  0
    0.7358    0.9671    2.7968 H   0  0  0  0  0  0  0  0  0  0  0  0
    0.6362   -0.6796    2.1432 H   0  0  0  0  0  0  0  0  0  0  0  0
    2.9979   -1.0870    2.6971 H   0  0  0  0  0  0  0  0  0  0  0  0
    3.1287    0.5282    3.4581 H   0  0  0  0  0  0  0  0  0  0  0  0
    5.1210   -0.6775   -1.4418 H   0  0  0  0  0  0  0  0  0  0  0  0
    5.4245    1.0263   -1.8919 H   0  0  0  0  0  0  0  0  0  0  0  0
    6.9693    0.3558   -0.0815 H   0  0  0  0  0  0  0  0  0  0  0  0
    5.8067    1.5333    0.5567 H   0  0  0  0  0  0  0  0  0  0  0  0
    5.6137   -0.1898    0.9157 H   0  0  0  0  0  0  0  0  0  0  0  0
    0.7425   -1.6221   -1.1404 H   0  0  0  0  0  0  0  0  0  0  0  0
   -0.4236   -0.6308   -2.0959 H   0  0  0  0  0  0  0  0  0  0  0  0
   -3.2886    1.8068    1.9137 H   0  0  0  0  0  0  0  0  0  0  0  0
   -1.8467    0.7590    1.9309 H   0  0  0  0  0  0  0  0  0  0  0  0
   -1.8540    3.7759    1.3864 H   0  0  0  0  0  0  0  0  0  0  0  0
   -1.3108    3.0052    2.8863 H   0  0  0  0  0  0  0  0  0  0  0  0
   -0.4228    2.7470    1.3682 H   0  0  0  0  0  0  0  0  0  0  0  0
   -4.8143   -1.4855   -1.3712 H   0  0  0  0  0  0  0  0  0  0  0  0
   -4.2123   -2.3316    0.0785 H   0  0  0  0  0  0  0  0  0  0  0  0
   -6.7067   -2.2613    0.0725 H   0  0  0  0  0  0  0  0  0  0  0  0
   -6.0590   -1.3192    1.4254 H   0  0  0  0  0  0  0  0  0  0  0  0
   -6.6633   -0.4937   -0.0169 H   0  0  0  0  0  0  0  0  0  0  0  0
  1  2  1  0  0  0  0
  2  3  1  0  0  0  0
  3  4  2  0  0  0  0
  4  5  2  0  0  0  0
  4  6  2  0  0  0  0
  6  7  1  0  0  0  0
  7  8  1  0  0  0  0
  4  9  1  0  0  0  0
  9 10  1  0  0  0  0
 10 11  1  0  0  0  0
 11 12  1  0  0  0  0
 12 13  2  0  0  0  0
 12 14  2  0  0  0  0
 14 15  1  0  0  0  0
 15 16  1  0  0  0  0
 12 17  2  0  0  0  0
 17 18  1  0  0  0  0
 18 19  1  0  0  0  0
  1 20  1  0  0  0  0
  1 21  1  0  0  0  0
  1 22  1  0  0  0  0
  2 23  1  0  0  0  0
  2 24  1  0  0  0  0
  7 25  1  0  0  0  0
  7 26  1  0  0  0  0
  8 27  1  0  0  0  0
  8 28  1  0  0  0  0
  8 29  1  0  0  0  0
 10 30  1  0  0  0  0
 10 31  1  0  0  0  0
 15 32  1  0  0  0  0
 15 33  1  0  0  0  0
 16 34  1  0  0  0  0
 16 35  1  0  0  0  0
 16 36  1  0  0  0  0
 18 37  1  0  0  0  0
 18 38  1  0  0  0  0
 19 39  1  0  0  0  0
 19 40  1  0  0  0  0
 19 41  1  0  0  0  0
M  END
