41
 xtb: 6.7.1 (edcfbbe)
C            3.57997902242754       -1.58991941765344       -2.34454160130281
C            2.41695587218783       -0.62893501677662       -2.30693722255242
O            1.56936710917920       -0.83176541500298       -1.12129140165007
P            2.07580629823067       -0.42004355986447        0.34777280434700
S            3.18812855615665        1.17272032065450        0.48490702536085
O            2.70692307824458       -1.81094665895979        0.86061255656626
C            3.75835879830945       -1.88738386567360        1.88414169185466
C            3.20598564758682       -1.71977396214591        3.27744448404245
S            0.25334849137327       -0.38740322554398        1.42233135497124
C           -0.27847961616250        1.35002018100275        1.15450078186726
S           -0.59145953924857        1.93622075703914       -0.56554582091925
P           -2.29364274127248        0.83487300426594       -1.14409678859227
S           -3.02952883924102        1.63789703107449       -2.75896109412468
O           -3.24487411449708        0.73617272647703        0.14989934335308
C           -4.00431768506442        1.90729764475027        0.60681067318189
C           -4.74787231702100        1.49584069673657        1.84992177131022
O           -1.78285278725236       -0.67550583089052       -1.27496478647652
C           -2.49136227471852       -1.84865576121248       -0.73534691938385
C           -3.74515181766237       -2.15240123592541       -1.51662693030892
H            3.23545310202506       -2.62583789488774       -2.27817696157347
H            4.10627514179485       -1.46119180665013       -3.29612066687393
H            4.29108166584688       -1.39732767500945       -1.53536551867930
H            1.72993253840755       -0.79382978484321       -3.13922099331878
H            2.74562919374208        0.41491287024363       -2.31674596871208
H            4.18279934092440       -2.88266084970062        1.73724393004948
H            4.51959313298857       -1.13701721902877        1.65088840283309
H            4.01245014350549       -1.90306034193932        3.99511504184970
H            2.82753052962912       -0.70698732377177        3.44257704115645
H            2.40373773353074       -2.43791884378102        3.47060963015373
H            0.49307275445203        2.02289089632142        1.54063852669113
H           -1.18590270343813        1.46713197091528        1.75389199690562
H           -3.29908804827780        2.72197169080305        0.80480398800766
H           -4.68393460350565        2.20644573995427       -0.19678990703119
H           -5.33014859957351        2.34870559907569        2.21173624296585
H           -5.43591949519326        0.67269919740625        1.63758164874592
H           -4.05501735257237        1.19041941375399        2.63910864086190
H           -1.75465099045167       -2.64913341412629       -0.82826643528752
H           -2.69511882842381       -1.67735833256911        0.32406153720529
H           -4.17874118587132       -3.08185974692953       -1.13273801663663
H           -4.49106673062197       -1.35961454402839       -1.40650177604866
H           -3.52213738199704       -2.28882257298114       -2.57859737076280
