 xtb: 6.7.1 (edcfbbe)
          04092505213D

 41 40  0     0  0            999 V2000
    3.4858    1.4721   -2.3107 C   0  0  0  0  0  0  0  0  0  0  0  0
    2.2707    0.5685   -2.3053 C   0  0  0  0  0  0  0  0  0  0  0  0
    2.4410   -0.5178   -1.3789 O   0  0  0  0  0  0  0  0  0  0  0  0
    2.3321   -0.3451    0.1911 P   0  0  0  0  0  0  0  0  0  0  0  0
    1.3118    1.2360    0.7657 S   0  0  0  0  0  0  0  0  0  0  0  0
    3.8678   -0.3878    0.5862 O   0  0  0  0  0  0  0  0  0  0  0  0
    4.3997   -0.7561    1.8725 C   0  0  0  0  0  0  0  0  0  0  0  0
    3.7571    0.0020    3.0157 C   0  0  0  0  0  0  0  0  0  0  0  0
    1.6189   -2.2432    0.7893 S   0  0  0  0  0  0  0  0  0  0  0  0
   -0.1493   -1.8825    0.7461 C   0  0  0  0  0  0  0  0  0  0  0  0
   -0.6834   -1.2734   -0.8933 S   0  0  0  0  0  0  0  0  0  0  0  0
   -2.2592   -0.0095   -0.2613 P   0  0  0  0  0  0  0  0  0  0  0  0
   -2.2941    0.5454    1.6212 S   0  0  0  0  0  0  0  0  0  0  0  0
   -3.4689   -0.9236   -0.7137 O   0  0  0  0  0  0  0  0  0  0  0  0
   -4.8052   -0.7457   -0.1996 C   0  0  0  0  0  0  0  0  0  0  0  0
   -5.4341    0.5390   -0.6959 C   0  0  0  0  0  0  0  0  0  0  0  0
   -2.2880    1.1360   -1.3608 O   0  0  0  0  0  0  0  0  0  0  0  0
   -1.5841    2.3886   -1.2469 C   0  0  0  0  0  0  0  0  0  0  0  0
   -2.5112    3.4721   -0.7312 C   0  0  0  0  0  0  0  0  0  0  0  0
    4.3784    0.8966   -2.5395 H   0  0  0  0  0  0  0  0  0  0  0  0
    3.3555    2.2541   -3.0519 H   0  0  0  0  0  0  0  0  0  0  0  0
    3.6046    1.9266   -1.3274 H   0  0  0  0  0  0  0  0  0  0  0  0
    2.1174    0.0768   -3.2666 H   0  0  0  0  0  0  0  0  0  0  0  0
    1.3705    1.1288   -2.0296 H   0  0  0  0  0  0  0  0  0  0  0  0
    4.2652   -1.8340    1.9980 H   0  0  0  0  0  0  0  0  0  0  0  0
    5.4623   -0.5219    1.7861 H   0  0  0  0  0  0  0  0  0  0  0  0
    4.2540   -0.2568    3.9451 H   0  0  0  0  0  0  0  0  0  0  0  0
    3.8346    1.0747    2.8530 H   0  0  0  0  0  0  0  0  0  0  0  0
    2.7022   -0.2591    3.0950 H   0  0  0  0  0  0  0  0  0  0  0  0
   -0.3910   -1.1166    1.4891 H   0  0  0  0  0  0  0  0  0  0  0  0
   -0.6538   -2.8194    0.9690 H   0  0  0  0  0  0  0  0  0  0  0  0
   -5.3403   -1.6257   -0.5583 H   0  0  0  0  0  0  0  0  0  0  0  0
   -4.7575   -0.7557    0.8941 H   0  0  0  0  0  0  0  0  0  0  0  0
   -4.9027    1.3938   -0.2807 H   0  0  0  0  0  0  0  0  0  0  0  0
   -5.3844    0.5860   -1.7806 H   0  0  0  0  0  0  0  0  0  0  0  0
   -6.4712    0.5790   -0.3777 H   0  0  0  0  0  0  0  0  0  0  0  0
   -0.7237    2.2728   -0.5819 H   0  0  0  0  0  0  0  0  0  0  0  0
   -1.2399    2.6072   -2.2596 H   0  0  0  0  0  0  0  0  0  0  0  0
   -2.8291    3.2390    0.2830 H   0  0  0  0  0  0  0  0  0  0  0  0
   -1.9794    4.4180   -0.7211 H   0  0  0  0  0  0  0  0  0  0  0  0
   -3.3853    3.5549   -1.3712 H   0  0  0  0  0  0  0  0  0  0  0  0
  1  2  1  0  0  0  0
  2  3  1  0  0  0  0
  3  4  2  0  0  0  0
  4  5  2  0  0  0  0
  4  6  2  0  0  0  0
  6  7  1  0  0  0  0
  7  8  1  0  0  0  0
  4  9  1  0  0  0  0
  9 10  1  0  0  0  0
 10 11  1  0  0  0  0
 11 12  1  0  0  0  0
 12 13  2  0  0  0  0
 12 14  2  0  0  0  0
 14 15  1  0  0  0  0
 15 16  1  0  0  0  0
 12 17  2  0  0  0  0
 17 18  1  0  0  0  0
 18 19  1  0  0  0  0
  1 20  1  0  0  0  0
  1 21  1  0  0  0  0
  1 22  1  0  0  0  0
  2 23  1  0  0  0  0
  2 24  1  0  0  0  0
  7 25  1  0  0  0  0
  7 26  1  0  0  0  0
  8 27  1  0  0  0  0
  8 28  1  0  0  0  0
  8 29  1  0  0  0  0
 10 30  1  0  0  0  0
 10 31  1  0  0  0  0
 15 32  1  0  0  0  0
 15 33  1  0  0  0  0
 16 34  1  0  0  0  0
 16 35  1  0  0  0  0
 16 36  1  0  0  0  0
 18 37  1  0  0  0  0
 18 38  1  0  0  0  0
 19 39  1  0  0  0  0
 19 40  1  0  0  0  0
 19 41  1  0  0  0  0
M  END
