  19
 
 C         -4.1148152372       -0.0024438002       -0.0939057798
 C         -2.7530033539        0.0100009294        0.5909774088
 C         -1.6143743710       -0.0078408253       -0.4272999332
 C         -0.2516187241        0.0046885042        0.2608127682
 C          0.8818640450       -0.0138815749       -0.7754595847
 N          2.1473130129       -0.0009933170       -0.0579665180
 O          2.6373255137       -1.0672940193        0.2549563437
 O          2.6277994211        1.0758825315        0.2327189948
 H         -4.9122124238        0.0105043723        0.6445335127
 H         -4.2270402877        0.8681361194       -0.7357099438
 H         -4.2266705199       -0.8953104236       -0.7043981496
 H         -2.6680452989       -0.8599546389        1.2451914977
 H         -2.6683909774        0.9026781526        1.2138853824
 H         -1.7021967071        0.8632715835       -1.0783770996
 H         -1.7017877538       -0.9016201935       -1.0469625543
 H         -0.1588490526       -0.8686627468        0.9095275165
 H         -0.1586666338        0.9009147385        0.8774988307
 H          0.8320780483        0.8781816612       -1.3999358616
 H          0.8325914062       -0.9273141956       -1.3682492566
          19
        -27.29166213
 C         -3.0102898070       -0.9963680301       -0.0440248227
 C         -1.5890761280       -0.4921300376        0.1809296433
 C         -1.4579693833        0.9851268106       -0.1871006804
 C         -0.1085617283        1.5950382296        0.1900044908
 C          1.0608871544        0.9836927864       -0.5795138847
 N          1.4975236090       -0.2872442321       -0.0074917772
 O          1.5726314558       -0.3876999382        1.1984860186
 O          1.7992579434       -1.1791356212       -0.7781811923
 H         -3.7134724432       -0.4432460537        0.5741522685
 H         -3.2967741617       -0.8727135594       -1.0859220662
 H         -3.0854403110       -2.0509266563        0.2095264281
 H         -0.9075890875       -1.0962237941       -0.4231583084
 H         -1.3156142538       -0.6337098292        1.2298988195
 H         -2.2386849484        1.5417345323        0.3343491406
 H         -1.6278273870        1.1047846402       -1.2590083462
 H          0.0718817687        1.4651747029        1.2586710778
 H         -0.1345598023        2.6630878722       -0.0224856886
 H          1.9258966623        1.6499533299       -0.5154200067
 H          0.8215416653        0.8040687127       -1.6285030703
