41
 xtb: 6.7.1 (edcfbbe)
C            6.14686651640832        0.41771903637630       -0.67188357623668
C            4.72594263920827        0.31367982437438       -1.15978606297105
O            3.86453768776107        0.23071702749793        0.03040733700364
P            2.26925087442906        0.40461357595780       -0.07423774295253
S            1.55600792197877        1.95811979011696       -0.99594206764952
O            1.84863794639008        0.39386495345782        1.46824259162176
C            2.29115762483198       -0.66739481823072        2.39492679837191
C            3.24788217626647       -0.07815994770513        3.39884280329084
S            1.74512694587251       -1.48123301537154       -0.92923840406775
C            0.03262422492679       -1.13570693632372       -1.45744137368009
S           -1.14076447202473       -1.19125637440870       -0.02339168761189
P           -2.60959240611954        0.20915183013849       -0.64780597884016
S           -2.86992049583486        0.34604311852878       -2.57175417952834
O           -2.27277515821956        1.63600684468583       -0.00204932998374
C           -1.63612308630502        1.84847483651590        1.31076590463583
C           -2.54418680512552        1.51844915256644        2.46922811024664
O           -3.87658488167900       -0.24999292086783        0.23538193646759
C           -4.64226824003246       -1.45611392644285       -0.11164417858259
C           -5.93420895059261       -1.40246411559280        0.66125078059235
H            6.81353505483766        0.47258151276827       -1.53789236335335
H            6.28735696329276        1.31931780707770       -0.06921182593067
H            6.42335489393414       -0.45811790818547       -0.07820488791589
H            4.56588799176919       -0.58800211119307       -1.75891390641415
H            4.42852490600284        1.19315883828649       -1.73940983440792
H            1.37450894967558       -1.03336137723033        2.86369629775299
H            2.74709044754898       -1.48456137774621        1.82877411345953
H            4.15682833516406        0.28428174250565        2.91055819637336
H            2.78124319927221        0.74575377712596        3.94585552694325
H            3.52676811337154       -0.85499934948167        4.11814226205087
H           -0.23270853907890       -1.92117604365688       -2.16878471169975
H           -0.01349469034236       -0.15809895509104       -1.94371297179666
H           -0.70995786014819        1.26781485012200        1.33581424541234
H           -1.38456610922839        2.91056650497145        1.29025351311120
H           -2.72834204649788        0.44444961583092        2.55584308120175
H           -2.05190064932917        1.85207671105434        3.38898145810448
H           -3.50142603999052        2.04067088544845        2.38363446329299
H           -4.81561659383136       -1.45738680032355       -1.19242748288449
H           -4.04081833880300       -2.32923681633940        0.16003847634105
H           -6.51617396214021       -2.30190577039764        0.43804052822020
H           -5.74667037977766       -1.37144492467224        1.73829704820422
H           -6.52548795160403       -0.52819917187391        0.37472996493832
