41
 xtb: 6.7.1 (edcfbbe)
C            2.91574668033179       -2.55373823043425        1.56381352706643
C            1.77168044757116       -2.27119640803674        0.62184525560561
O            1.47423102084907       -0.83549281274581        0.55777825715995
P            2.34558275245118        0.19684172679483       -0.31322443389060
S            3.26775355360402       -0.51163184609685       -1.87113828381214
O            3.36161338390329        0.90743040725579        0.71247500820001
C            2.92727601461324        1.31562933355590        2.06335644081312
C            4.11357913539290        1.95831161925227        2.73156214823255
S            0.93139040772827        1.74161632116245       -0.66610321600037
C            0.08090631718307        1.07011148997512       -2.15343482068984
S           -0.77521407573992       -0.53945972179732       -2.00648461782871
P           -2.31778469286823       -0.05522333631780       -0.62010655998108
S           -3.14991293749821        1.69216778700609       -0.84013024011353
O           -1.76503620246764       -0.39045079552671        0.85471891408746
C           -1.40122188737567        0.60403372159037        1.86967153681297
C           -2.10025099900626        0.24712543185920        3.15715844216620
O           -3.18567257188501       -1.36992008225564       -0.93316412848436
C           -4.61726182274718       -1.45848915150359       -0.59910060652385
C           -4.85986260002504       -1.52347337027579        0.88825247763910
H            2.69846655206221       -2.17882236229607        2.56798954522123
H            3.06332483677643       -3.63707863892596        1.62502198248190
H            3.84723241702107       -2.10277997408590        1.20719810680287
H            0.83643409425384       -2.71278852040097        0.97316057860772
H            1.97511886697248       -2.62716198641669       -0.39274201185805
H            2.09306706360297        2.01901279188737        1.96818708703885
H            2.59083837753128        0.42324508333658        2.59800963028327
H            4.94439748037419        1.25192912803613        2.81418256170387
H            4.44528523372324        2.84053159181459        2.17722658549662
H            3.82398342406578        2.27107471790935        3.73940811822400
H            0.80840447984463        0.93567983278967       -2.95898351522821
H           -0.63826885514354        1.84431808255345       -2.43722301197186
H           -0.31433454282627        0.55749972773583        1.97152647317251
H           -1.68616523259303        1.59816597749826        1.51474113456480
H           -1.85047029003213       -0.77055727337672        3.47127273080032
H           -1.76761952526709        0.93794581641539        3.93885846109644
H           -3.18551927591657        0.33476884592367        3.05719279701934
H           -5.12619921737339       -0.60715045209238       -1.06137701515208
H           -4.93252224007158       -2.37601211750754       -1.09915652556413
H           -5.92309779431060       -1.72554551045671        1.05486867648734
H           -4.27937236779459       -2.32891378141839        1.34721313056493
H           -4.61370449927764       -0.57870776534983        1.38028611089914
