 xtb: 6.7.1 (edcfbbe)
          04092507313D

 38 37  0     0  0            999 V2000
    3.5629   -1.3685    1.8767 C   0  0  0  0  0  0  0  0  0  0  0  0
    2.7597   -2.2270    0.9134 C   0  0  0  0  0  0  0  0  0  0  0  0
    2.5395   -1.5370   -0.3341 O   0  0  0  0  0  0  0  0  0  0  0  0
    1.5730   -0.6652   -0.4145 C   0  0  0  0  0  0  0  0  0  0  0  0
    0.8260   -0.3615    0.5061 O   0  0  0  0  0  0  0  0  0  0  0  0
    1.4458   -0.0310   -1.7759 C   0  0  0  0  0  0  0  0  0  0  0  0
    0.3601    1.0318   -1.7049 C   0  0  0  0  0  0  0  0  0  0  0  0
    0.3507    1.6423   -2.6117 H   0  0  0  0  0  0  0  0  0  0  0  0
    0.5374    1.9482   -0.5012 C   0  0  0  0  0  0  0  0  0  0  0  0
   -0.3737    2.3908    0.1568 O   0  0  0  0  0  0  0  0  0  0  0  0
    1.8137    2.2261   -0.3095 O   0  0  0  0  0  0  0  0  0  0  0  0
    2.1579    3.1338    0.7566 C   0  0  0  0  0  0  0  0  0  0  0  0
    2.0554    4.5789    0.2977 C   0  0  0  0  0  0  0  0  0  0  0  0
   -1.3302    0.3388   -1.6784 S   0  0  0  0  0  0  0  0  0  0  0  0
   -1.6918   -0.7744    0.0902 P   0  0  0  0  0  0  0  0  0  0  0  0
   -0.9957   -2.6024    0.3406 S   0  0  0  0  0  0  0  0  0  0  0  0
   -1.7545    0.1844    1.3481 O   0  0  0  0  0  0  0  0  0  0  0  0
   -1.0512   -0.0081    2.5725 C   0  0  0  0  0  0  0  0  0  0  0  0
   -3.2847   -0.8481   -0.1088 O   0  0  0  0  0  0  0  0  0  0  0  0
   -3.8848   -1.6761   -1.1073 C   0  0  0  0  0  0  0  0  0  0  0  0
    3.7628   -1.9370    2.7787 H   0  0  0  0  0  0  0  0  0  0  0  0
    4.5040   -1.0751    1.4201 H   0  0  0  0  0  0  0  0  0  0  0  0
    3.0006   -0.4756    2.1419 H   0  0  0  0  0  0  0  0  0  0  0  0
    1.7888   -2.4991    1.3371 H   0  0  0  0  0  0  0  0  0  0  0  0
    3.3052   -3.1253    0.6263 H   0  0  0  0  0  0  0  0  0  0  0  0
    1.1933   -0.7970   -2.5109 H   0  0  0  0  0  0  0  0  0  0  0  0
    2.4045    0.4111   -2.0504 H   0  0  0  0  0  0  0  0  0  0  0  0
    1.4912    2.9462    1.6033 H   0  0  0  0  0  0  0  0  0  0  0  0
    3.1836    2.8689    1.0146 H   0  0  0  0  0  0  0  0  0  0  0  0
    2.3855    5.2317    1.0989 H   0  0  0  0  0  0  0  0  0  0  0  0
    2.6797    4.7388   -0.5768 H   0  0  0  0  0  0  0  0  0  0  0  0
    1.0243    4.8199    0.0488 H   0  0  0  0  0  0  0  0  0  0  0  0
   -0.2101    0.6829    2.6059 H   0  0  0  0  0  0  0  0  0  0  0  0
   -0.6891   -1.0352    2.6494 H   0  0  0  0  0  0  0  0  0  0  0  0
   -1.7598    0.2079    3.3692 H   0  0  0  0  0  0  0  0  0  0  0  0
   -4.9328   -1.7566   -0.8297 H   0  0  0  0  0  0  0  0  0  0  0  0
   -3.4157   -2.6626   -1.1068 H   0  0  0  0  0  0  0  0  0  0  0  0
   -3.7820   -1.2151   -2.0895 H   0  0  0  0  0  0  0  0  0  0  0  0
  1  2  1  0  0  0  0
  2  3  1  0  0  0  0
  3  4  4  0  0  0  0
  4  5  2  0  0  0  0
  4  6  1  0  0  0  0
  6  7  1  0  0  0  0
  7  8  1  0  0  0  0
  7  9  1  0  0  0  0
  9 10  2  0  0  0  0
  9 11  1  0  0  0  0
 11 12  1  0  0  0  0
 12 13  1  0  0  0  0
  7 14  1  0  0  0  0
 14 15  1  0  0  0  0
 15 16  2  0  0  0  0
 15 17  2  0  0  0  0
 17 18  1  0  0  0  0
 15 19  1  0  0  0  0
 19 20  1  0  0  0  0
  1 21  1  0  0  0  0
  1 22  1  0  0  0  0
  1 23  1  0  0  0  0
  2 24  1  0  0  0  0
  2 25  1  0  0  0  0
  6 26  1  0  0  0  0
  6 27  1  0  0  0  0
 12 28  1  0  0  0  0
 12 29  1  0  0  0  0
 13 30  1  0  0  0  0
 13 31  1  0  0  0  0
 13 32  1  0  0  0  0
 18 33  1  0  0  0  0
 18 34  1  0  0  0  0
 18 35  1  0  0  0  0
 20 36  1  0  0  0  0
 20 37  1  0  0  0  0
 20 38  1  0  0  0  0
M  END
