 xtb: 6.7.1 (edcfbbe)
          04092507313D

 38 37  0     0  0            999 V2000
    4.2362   -2.3825    0.8254 C   0  0  0  0  0  0  0  0  0  0  0  0
    2.7573   -2.2987    0.5045 C   0  0  0  0  0  0  0  0  0  0  0  0
    2.5695   -1.2509   -0.4662 O   0  0  0  0  0  0  0  0  0  0  0  0
    1.4170   -1.1732   -1.0889 C   0  0  0  0  0  0  0  0  0  0  0  0
    0.4806   -1.9267   -0.9039 O   0  0  0  0  0  0  0  0  0  0  0  0
    1.3787   -0.0284   -2.0794 C   0  0  0  0  0  0  0  0  0  0  0  0
    0.2914    0.9764   -1.6971 C   0  0  0  0  0  0  0  0  0  0  0  0
    0.2141    1.7417   -2.4761 H   0  0  0  0  0  0  0  0  0  0  0  0
    0.5438    1.6810   -0.3763 C   0  0  0  0  0  0  0  0  0  0  0  0
   -0.3633    1.9972    0.3689 O   0  0  0  0  0  0  0  0  0  0  0  0
    1.8115    1.8987   -0.1614 O   0  0  0  0  0  0  0  0  0  0  0  0
    2.1951    2.5538    1.0664 C   0  0  0  0  0  0  0  0  0  0  0  0
    2.0498    4.0617    0.9506 C   0  0  0  0  0  0  0  0  0  0  0  0
   -1.3781    0.2389   -1.6302 S   0  0  0  0  0  0  0  0  0  0  0  0
   -1.6640   -0.2750    0.4197 P   0  0  0  0  0  0  0  0  0  0  0  0
   -0.2766   -0.6188    1.7610 S   0  0  0  0  0  0  0  0  0  0  0  0
   -2.7151    0.7573    1.0012 O   0  0  0  0  0  0  0  0  0  0  0  0
   -3.9167    1.1424    0.3117 C   0  0  0  0  0  0  0  0  0  0  0  0
   -2.6555   -1.5260    0.2296 O   0  0  0  0  0  0  0  0  0  0  0  0
   -2.2414   -2.8435   -0.1292 C   0  0  0  0  0  0  0  0  0  0  0  0
    4.5811   -1.4372    1.2323 H   0  0  0  0  0  0  0  0  0  0  0  0
    4.3969   -3.1662    1.5580 H   0  0  0  0  0  0  0  0  0  0  0  0
    4.8016   -2.6085   -0.0738 H   0  0  0  0  0  0  0  0  0  0  0  0
    2.1587   -2.0519    1.3877 H   0  0  0  0  0  0  0  0  0  0  0  0
    2.3753   -3.2323    0.0793 H   0  0  0  0  0  0  0  0  0  0  0  0
    1.1402   -0.4366   -3.0623 H   0  0  0  0  0  0  0  0  0  0  0  0
    2.3486    0.4668   -2.0922 H   0  0  0  0  0  0  0  0  0  0  0  0
    1.5765    2.1571    1.8769 H   0  0  0  0  0  0  0  0  0  0  0  0
    3.2351    2.2600    1.2058 H   0  0  0  0  0  0  0  0  0  0  0  0
    1.0040    4.3289    0.8167 H   0  0  0  0  0  0  0  0  0  0  0  0
    2.4149    4.5237    1.8618 H   0  0  0  0  0  0  0  0  0  0  0  0
    2.6248    4.4298    0.1056 H   0  0  0  0  0  0  0  0  0  0  0  0
   -4.3917    1.8708    0.9636 H   0  0  0  0  0  0  0  0  0  0  0  0
   -4.5565    0.2735    0.1662 H   0  0  0  0  0  0  0  0  0  0  0  0
   -3.6675    1.5912   -0.6500 H   0  0  0  0  0  0  0  0  0  0  0  0
   -1.9390   -2.8693   -1.1751 H   0  0  0  0  0  0  0  0  0  0  0  0
   -3.1082   -3.4765    0.0436 H   0  0  0  0  0  0  0  0  0  0  0  0
   -1.4030   -3.1564    0.4934 H   0  0  0  0  0  0  0  0  0  0  0  0
  1  2  1  0  0  0  0
  2  3  1  0  0  0  0
  3  4  4  0  0  0  0
  4  5  2  0  0  0  0
  4  6  1  0  0  0  0
  6  7  1  0  0  0  0
  7  8  1  0  0  0  0
  7  9  1  0  0  0  0
  9 10  2  0  0  0  0
  9 11  4  0  0  0  0
 11 12  1  0  0  0  0
 12 13  1  0  0  0  0
  7 14  1  0  0  0  0
 14 15  1  0  0  0  0
 15 16  2  0  0  0  0
 15 17  2  0  0  0  0
 17 18  1  0  0  0  0
 15 19  1  0  0  0  0
 19 20  1  0  0  0  0
  1 21  1  0  0  0  0
  1 22  1  0  0  0  0
  1 23  1  0  0  0  0
  2 24  1  0  0  0  0
  2 25  1  0  0  0  0
  6 26  1  0  0  0  0
  6 27  1  0  0  0  0
 12 28  1  0  0  0  0
 12 29  1  0  0  0  0
 13 30  1  0  0  0  0
 13 31  1  0  0  0  0
 13 32  1  0  0  0  0
 18 33  1  0  0  0  0
 18 34  1  0  0  0  0
 18 35  1  0  0  0  0
 20 36  1  0  0  0  0
 20 37  1  0  0  0  0
 20 38  1  0  0  0  0
M  END
