 xtb: 6.7.1 (edcfbbe)
          04032519423D

 20 20  0     0  0            999 V2000
    0.5917    1.7035    0.0180 C   0  0  0  0  0  0  0  0  0  0  0  0
    1.4000    0.4217   -0.2455 C   0  0  0  0  0  0  0  0  0  0  0  0
    1.5987    0.3442   -1.3218 H   0  0  0  0  0  0  0  0  0  0  0  0
    0.5538   -0.7821    0.1964 C   0  0  0  0  0  0  0  0  0  0  0  0
    0.3526   -0.7153    1.2729 H   0  0  0  0  0  0  0  0  0  0  0  0
   -0.7916   -0.7408   -0.5496 C   0  0  0  0  0  0  0  0  0  0  0  0
   -0.6148   -0.8384   -1.6322 H   0  0  0  0  0  0  0  0  0  0  0  0
   -1.4758    0.6175   -0.2920 C   0  0  0  0  0  0  0  0  0  0  0  0
   -2.3660    0.7085   -0.9330 H   0  0  0  0  0  0  0  0  0  0  0  0
   -0.6525    1.6763   -0.6703 O   0  0  0  0  0  0  0  0  0  0  0  0
   -1.8295    0.7412    1.0568 O   0  0  0  0  0  0  0  0  0  0  0  0
   -1.6633   -1.7463   -0.0990 O   0  0  0  0  0  0  0  0  0  0  0  0
    1.1935   -2.0222    0.0132 O   0  0  0  0  0  0  0  0  0  0  0  0
    2.6641    0.4508    0.3607 O   0  0  0  0  0  0  0  0  0  0  0  0
    1.1170    2.5763   -0.3689 H   0  0  0  0  0  0  0  0  0  0  0  0
    0.4145    1.8231    1.0933 H   0  0  0  0  0  0  0  0  0  0  0  0
   -2.3354   -0.0496    1.3034 H   0  0  0  0  0  0  0  0  0  0  0  0
   -1.1582   -2.5703   -0.0066 H   0  0  0  0  0  0  0  0  0  0  0  0
    1.6748   -2.0271   -0.8262 H   0  0  0  0  0  0  0  0  0  0  0  0
    2.5701    0.5009    1.3230 H   0  0  0  0  0  0  0  0  0  0  0  0
  1  2  1  0  0  0  0
  2  3  1  0  0  0  0
  2  4  1  0  0  0  0
  4  5  1  0  0  0  0
  4  6  1  0  0  0  0
  6  7  1  0  0  0  0
  6  8  1  0  0  0  0
  8  9  1  0  0  0  0
  1 10  1  0  0  0  0
  8 10  1  0  0  0  0
  8 11  1  0  0  0  0
  6 12  1  0  0  0  0
  4 13  1  0  0  0  0
  2 14  1  0  0  0  0
  1 15  1  0  0  0  0
  1 16  1  0  0  0  0
 11 17  1  0  0  0  0
 12 18  1  0  0  0  0
 13 19  1  0  0  0  0
 14 20  1  0  0  0  0
M  END
