 xtb: 6.7.1 (edcfbbe)
          04092505203D

 41 40  0     0  0            999 V2000
    4.3653   -0.4398   -1.7074 C   0  0  0  0  0  0  0  0  0  0  0  0
    4.4615   -0.0604   -0.2435 C   0  0  0  0  0  0  0  0  0  0  0  0
    3.3717   -0.5847    0.5302 O   0  0  0  0  0  0  0  0  0  0  0  0
    1.8611   -0.1141    0.3162 P   0  0  0  0  0  0  0  0  0  0  0  0
    1.7029    1.8202    0.0001 S   0  0  0  0  0  0  0  0  0  0  0  0
    1.1876   -0.6760    1.6340 O   0  0  0  0  0  0  0  0  0  0  0  0
    1.3849   -0.0374    2.9131 C   0  0  0  0  0  0  0  0  0  0  0  0
    2.4771   -0.7300    3.7030 C   0  0  0  0  0  0  0  0  0  0  0  0
    1.0772   -1.4431   -1.1176 S   0  0  0  0  0  0  0  0  0  0  0  0
    0.2218   -0.2747   -2.2216 C   0  0  0  0  0  0  0  0  0  0  0  0
   -1.5769   -0.5267   -2.3491 S   0  0  0  0  0  0  0  0  0  0  0  0
   -2.2239    0.2701   -0.5118 P   0  0  0  0  0  0  0  0  0  0  0  0
   -4.1523    0.3306   -0.1838 S   0  0  0  0  0  0  0  0  0  0  0  0
   -1.4809    1.6697   -0.5703 O   0  0  0  0  0  0  0  0  0  0  0  0
   -1.9097    2.7990    0.2159 C   0  0  0  0  0  0  0  0  0  0  0  0
   -1.6849    2.5764    1.6960 C   0  0  0  0  0  0  0  0  0  0  0  0
   -1.3818   -0.5025    0.6096 O   0  0  0  0  0  0  0  0  0  0  0  0
   -1.9036   -1.6737    1.2604 C   0  0  0  0  0  0  0  0  0  0  0  0
   -2.0844   -2.8347    0.3033 C   0  0  0  0  0  0  0  0  0  0  0  0
    5.2745   -0.1367   -2.2166 H   0  0  0  0  0  0  0  0  0  0  0  0
    4.2328   -1.5137   -1.8121 H   0  0  0  0  0  0  0  0  0  0  0  0
    3.5188    0.0677   -2.1687 H   0  0  0  0  0  0  0  0  0  0  0  0
    4.4728    1.0286   -0.1296 H   0  0  0  0  0  0  0  0  0  0  0  0
    5.3475   -0.4913    0.2248 H   0  0  0  0  0  0  0  0  0  0  0  0
    1.6231    1.0198    2.7511 H   0  0  0  0  0  0  0  0  0  0  0  0
    0.4192   -0.1135    3.4181 H   0  0  0  0  0  0  0  0  0  0  0  0
    2.5544   -0.2679    4.6823 H   0  0  0  0  0  0  0  0  0  0  0  0
    2.2396   -1.7835    3.8194 H   0  0  0  0  0  0  0  0  0  0  0  0
    3.4303   -0.6415    3.1881 H   0  0  0  0  0  0  0  0  0  0  0  0
    0.5888   -0.4462   -3.2301 H   0  0  0  0  0  0  0  0  0  0  0  0
    0.4257    0.7450   -1.8886 H   0  0  0  0  0  0  0  0  0  0  0  0
   -1.3031    3.6226   -0.1638 H   0  0  0  0  0  0  0  0  0  0  0  0
   -2.9686    2.9804    0.0070 H   0  0  0  0  0  0  0  0  0  0  0  0
   -0.6409    2.3330    1.8792 H   0  0  0  0  0  0  0  0  0  0  0  0
   -1.9448    3.4791    2.2395 H   0  0  0  0  0  0  0  0  0  0  0  0
   -2.3095    1.7555    2.0465 H   0  0  0  0  0  0  0  0  0  0  0  0
   -1.1620   -1.8994    2.0278 H   0  0  0  0  0  0  0  0  0  0  0  0
   -2.8596   -1.4079    1.7227 H   0  0  0  0  0  0  0  0  0  0  0  0
   -2.8294   -2.5805   -0.4510 H   0  0  0  0  0  0  0  0  0  0  0  0
   -1.1463   -3.0726   -0.1930 H   0  0  0  0  0  0  0  0  0  0  0  0
   -2.4278   -3.7025    0.8572 H   0  0  0  0  0  0  0  0  0  0  0  0
  1  2  1  0  0  0  0
  2  3  1  0  0  0  0
  3  4  1  0  0  0  0
  4  5  2  0  0  0  0
  4  6  2  0  0  0  0
  6  7  1  0  0  0  0
  7  8  1  0  0  0  0
  4  9  1  0  0  0  0
  9 10  1  0  0  0  0
 10 11  1  0  0  0  0
 11 12  1  0  0  0  0
 12 13  2  0  0  0  0
 12 14  2  0  0  0  0
 14 15  1  0  0  0  0
 15 16  1  0  0  0  0
 12 17  1  0  0  0  0
 17 18  1  0  0  0  0
 18 19  1  0  0  0  0
  1 20  1  0  0  0  0
  1 21  1  0  0  0  0
  1 22  1  0  0  0  0
  2 23  1  0  0  0  0
  2 24  1  0  0  0  0
  7 25  1  0  0  0  0
  7 26  1  0  0  0  0
  8 27  1  0  0  0  0
  8 28  1  0  0  0  0
  8 29  1  0  0  0  0
 10 30  1  0  0  0  0
 10 31  1  0  0  0  0
 15 32  1  0  0  0  0
 15 33  1  0  0  0  0
 16 34  1  0  0  0  0
 16 35  1  0  0  0  0
 16 36  1  0  0  0  0
 18 37  1  0  0  0  0
 18 38  1  0  0  0  0
 19 39  1  0  0  0  0
 19 40  1  0  0  0  0
 19 41  1  0  0  0  0
M  END
