 xtb: 6.7.1 (edcfbbe)
          04092505213D

 41 40  0     0  0            999 V2000
    3.7726   -0.2132   -2.4206 C   0  0  0  0  0  0  0  0  0  0  0  0
    2.3409   -0.0886   -1.9462 C   0  0  0  0  0  0  0  0  0  0  0  0
    2.2828    0.6067   -0.6757 O   0  0  0  0  0  0  0  0  0  0  0  0
    2.2223   -0.1267    0.7145 P   0  0  0  0  0  0  0  0  0  0  0  0
    2.5026    1.0922    2.2152 S   0  0  0  0  0  0  0  0  0  0  0  0
    3.2974   -1.2833    0.5533 O   0  0  0  0  0  0  0  0  0  0  0  0
    3.6026   -2.1663    1.6543 C   0  0  0  0  0  0  0  0  0  0  0  0
    4.8904   -2.8921    1.3232 C   0  0  0  0  0  0  0  0  0  0  0  0
    0.3929   -1.2263    0.7824 S   0  0  0  0  0  0  0  0  0  0  0  0
   -0.5741   -0.0052    1.7021 C   0  0  0  0  0  0  0  0  0  0  0  0
   -0.9474    1.4991    0.7542 S   0  0  0  0  0  0  0  0  0  0  0  0
   -2.1007    0.6204   -0.8160 P   0  0  0  0  0  0  0  0  0  0  0  0
   -1.1095   -0.0686   -2.3520 S   0  0  0  0  0  0  0  0  0  0  0  0
   -3.0574    1.7944   -1.2664 O   0  0  0  0  0  0  0  0  0  0  0  0
   -4.2994    2.1847   -0.6299 C   0  0  0  0  0  0  0  0  0  0  0  0
   -4.1305    2.5884    0.8188 C   0  0  0  0  0  0  0  0  0  0  0  0
   -3.0201   -0.4265   -0.0417 O   0  0  0  0  0  0  0  0  0  0  0  0
   -3.0656   -1.8308   -0.3688 C   0  0  0  0  0  0  0  0  0  0  0  0
   -4.1051   -2.0912   -1.4399 C   0  0  0  0  0  0  0  0  0  0  0  0
    3.7772   -0.6704   -3.4050 H   0  0  0  0  0  0  0  0  0  0  0  0
    4.2305    0.7705   -2.4783 H   0  0  0  0  0  0  0  0  0  0  0  0
    4.3458   -0.8293   -1.7329 H   0  0  0  0  0  0  0  0  0  0  0  0
    1.8643   -1.0669   -1.8413 H   0  0  0  0  0  0  0  0  0  0  0  0
    1.7426    0.5240   -2.6236 H   0  0  0  0  0  0  0  0  0  0  0  0
    3.7012   -1.5646    2.5636 H   0  0  0  0  0  0  0  0  0  0  0  0
    2.7688   -2.8634    1.7729 H   0  0  0  0  0  0  0  0  0  0  0  0
    5.7005   -2.1788    1.1992 H   0  0  0  0  0  0  0  0  0  0  0  0
    5.1334   -3.5710    2.1338 H   0  0  0  0  0  0  0  0  0  0  0  0
    4.7733   -3.4577    0.4033 H   0  0  0  0  0  0  0  0  0  0  0  0
    0.0029    0.3309    2.5647 H   0  0  0  0  0  0  0  0  0  0  0  0
   -1.4961   -0.4931    2.0055 H   0  0  0  0  0  0  0  0  0  0  0  0
   -4.6359    3.0220   -1.2434 H   0  0  0  0  0  0  0  0  0  0  0  0
   -5.0006    1.3526   -0.7215 H   0  0  0  0  0  0  0  0  0  0  0  0
   -3.8460    1.7287    1.4214 H   0  0  0  0  0  0  0  0  0  0  0  0
   -3.3631    3.3529    0.9147 H   0  0  0  0  0  0  0  0  0  0  0  0
   -5.0736    2.9815    1.1860 H   0  0  0  0  0  0  0  0  0  0  0  0
   -2.0759   -2.1555   -0.7027 H   0  0  0  0  0  0  0  0  0  0  0  0
   -3.3201   -2.3250    0.5699 H   0  0  0  0  0  0  0  0  0  0  0  0
   -3.8306   -1.5672   -2.3541 H   0  0  0  0  0  0  0  0  0  0  0  0
   -4.1491   -3.1560   -1.6442 H   0  0  0  0  0  0  0  0  0  0  0  0
   -5.0827   -1.7475   -1.1127 H   0  0  0  0  0  0  0  0  0  0  0  0
  1  2  1  0  0  0  0
  2  3  1  0  0  0  0
  3  4  2  0  0  0  0
  4  5  2  0  0  0  0
  4  6  2  0  0  0  0
  6  7  1  0  0  0  0
  7  8  1  0  0  0  0
  4  9  1  0  0  0  0
  9 10  1  0  0  0  0
 10 11  1  0  0  0  0
 11 12  1  0  0  0  0
 12 13  2  0  0  0  0
 12 14  2  0  0  0  0
 14 15  1  0  0  0  0
 15 16  1  0  0  0  0
 12 17  2  0  0  0  0
 17 18  1  0  0  0  0
 18 19  1  0  0  0  0
  1 20  1  0  0  0  0
  1 21  1  0  0  0  0
  1 22  1  0  0  0  0
  2 23  1  0  0  0  0
  2 24  1  0  0  0  0
  7 25  1  0  0  0  0
  7 26  1  0  0  0  0
  8 27  1  0  0  0  0
  8 28  1  0  0  0  0
  8 29  1  0  0  0  0
 10 30  1  0  0  0  0
 10 31  1  0  0  0  0
 15 32  1  0  0  0  0
 15 33  1  0  0  0  0
 16 34  1  0  0  0  0
 16 35  1  0  0  0  0
 16 36  1  0  0  0  0
 18 37  1  0  0  0  0
 18 38  1  0  0  0  0
 19 39  1  0  0  0  0
 19 40  1  0  0  0  0
 19 41  1  0  0  0  0
M  END
