 xtb: 6.7.1 (edcfbbe)
          04092505213D

 41 40  0     0  0            999 V2000
    1.4483   -0.9810   -3.0269 C   0  0  0  0  0  0  0  0  0  0  0  0
    2.0944   -1.5474   -1.7785 C   0  0  0  0  0  0  0  0  0  0  0  0
    2.5743   -0.4434   -0.9710 O   0  0  0  0  0  0  0  0  0  0  0  0
    2.5629   -0.4567    0.6055 P   0  0  0  0  0  0  0  0  0  0  0  0
    3.3487    1.2039    1.2785 S   0  0  0  0  0  0  0  0  0  0  0  0
    3.3008   -1.8317    0.9056 O   0  0  0  0  0  0  0  0  0  0  0  0
    3.2657   -2.5452    2.1574 C   0  0  0  0  0  0  0  0  0  0  0  0
    3.6788   -1.6871    3.3342 C   0  0  0  0  0  0  0  0  0  0  0  0
    0.5597   -0.8479    1.2250 S   0  0  0  0  0  0  0  0  0  0  0  0
    0.0139    0.8700    1.2087 C   0  0  0  0  0  0  0  0  0  0  0  0
   -0.1598    1.5388   -0.4795 S   0  0  0  0  0  0  0  0  0  0  0  0
   -2.1883    1.0195   -0.7887 P   0  0  0  0  0  0  0  0  0  0  0  0
   -2.8727    1.2800   -2.6041 S   0  0  0  0  0  0  0  0  0  0  0  0
   -2.8539    1.8765    0.3669 O   0  0  0  0  0  0  0  0  0  0  0  0
   -4.2546    2.2255    0.3358 C   0  0  0  0  0  0  0  0  0  0  0  0
   -5.1408    1.0098    0.5050 C   0  0  0  0  0  0  0  0  0  0  0  0
   -2.3368   -0.4567   -0.2131 O   0  0  0  0  0  0  0  0  0  0  0  0
   -2.0782   -1.6199   -1.0239 C   0  0  0  0  0  0  0  0  0  0  0  0
   -2.3723   -2.8395   -0.1757 C   0  0  0  0  0  0  0  0  0  0  0  0
    1.0957   -1.7957   -3.6514 H   0  0  0  0  0  0  0  0  0  0  0  0
    0.6089   -0.3369   -2.7698 H   0  0  0  0  0  0  0  0  0  0  0  0
    2.1694   -0.3875   -3.5813 H   0  0  0  0  0  0  0  0  0  0  0  0
    2.9592   -2.1662   -2.0239 H   0  0  0  0  0  0  0  0  0  0  0  0
    1.3865   -2.1372   -1.1877 H   0  0  0  0  0  0  0  0  0  0  0  0
    2.2534   -2.9337    2.2981 H   0  0  0  0  0  0  0  0  0  0  0  0
    3.9629   -3.3698    1.9999 H   0  0  0  0  0  0  0  0  0  0  0  0
    2.9632   -0.8795    3.4814 H   0  0  0  0  0  0  0  0  0  0  0  0
    3.7144   -2.2972    4.2309 H   0  0  0  0  0  0  0  0  0  0  0  0
    4.6576   -1.2470    3.1585 H   0  0  0  0  0  0  0  0  0  0  0  0
    0.7702    1.4832    1.7008 H   0  0  0  0  0  0  0  0  0  0  0  0
   -0.9423    0.9205    1.7210 H   0  0  0  0  0  0  0  0  0  0  0  0
   -4.3648    2.9302    1.1610 H   0  0  0  0  0  0  0  0  0  0  0  0
   -4.4640    2.7277   -0.6138 H   0  0  0  0  0  0  0  0  0  0  0  0
   -4.8670    0.4651    1.4046 H   0  0  0  0  0  0  0  0  0  0  0  0
   -6.1764    1.3276    0.5748 H   0  0  0  0  0  0  0  0  0  0  0  0
   -5.0301    0.3519   -0.3559 H   0  0  0  0  0  0  0  0  0  0  0  0
   -2.7155   -1.5693   -1.9121 H   0  0  0  0  0  0  0  0  0  0  0  0
   -1.0327   -1.6030   -1.3425 H   0  0  0  0  0  0  0  0  0  0  0  0
   -2.1839   -3.7335   -0.7606 H   0  0  0  0  0  0  0  0  0  0  0  0
   -1.7312   -2.8371    0.7019 H   0  0  0  0  0  0  0  0  0  0  0  0
   -3.4100   -2.8314    0.1436 H   0  0  0  0  0  0  0  0  0  0  0  0
  1  2  1  0  0  0  0
  2  3  1  0  0  0  0
  3  4  2  0  0  0  0
  4  5  2  0  0  0  0
  4  6  2  0  0  0  0
  6  7  1  0  0  0  0
  7  8  1  0  0  0  0
  4  9  1  0  0  0  0
  9 10  1  0  0  0  0
 10 11  1  0  0  0  0
 11 12  1  0  0  0  0
 12 13  2  0  0  0  0
 12 14  2  0  0  0  0
 14 15  1  0  0  0  0
 15 16  1  0  0  0  0
 12 17  2  0  0  0  0
 17 18  1  0  0  0  0
 18 19  1  0  0  0  0
  1 20  1  0  0  0  0
  1 21  1  0  0  0  0
  1 22  1  0  0  0  0
  2 23  1  0  0  0  0
  2 24  1  0  0  0  0
  7 25  1  0  0  0  0
  7 26  1  0  0  0  0
  8 27  1  0  0  0  0
  8 28  1  0  0  0  0
  8 29  1  0  0  0  0
 10 30  1  0  0  0  0
 10 31  1  0  0  0  0
 15 32  1  0  0  0  0
 15 33  1  0  0  0  0
 16 34  1  0  0  0  0
 16 35  1  0  0  0  0
 16 36  1  0  0  0  0
 18 37  1  0  0  0  0
 18 38  1  0  0  0  0
 19 39  1  0  0  0  0
 19 40  1  0  0  0  0
 19 41  1  0  0  0  0
M  END
