38
 xtb: 6.7.1 (edcfbbe)
C            2.53783336049163       -3.04339214290186        0.39191213200976
C            3.14735532949682       -2.85418538700496       -0.97813078415865
O            2.28367237795963       -2.00685333721556       -1.80998773690752
C            2.36722417378162       -0.68570239911221       -1.61262267804828
O            3.16631036693203       -0.14800668735960       -0.86469990806694
C            1.33226607364353        0.07870619034336       -2.40029307442431
C            0.23398007419018        0.63949750287931       -1.47103570602753
H           -0.44760957681257        1.24083196392994       -2.07719381954620
C            0.85484856389692        1.57968396361877       -0.44605278497620
O            1.25055648583369        2.68231396949420       -0.78203865529659
O            0.94573823343404        1.08045290991160        0.77830331783122
C            1.60994795769678        1.92635359345637        1.77716440729020
C            1.59140237564324        1.17058425886887        3.07937177442961
S           -0.72047675982475       -0.79912403052769       -0.79864510628592
P           -2.15480575240608        0.16720153913870        0.43137943824123
S           -2.54500500711425        2.01336636186805       -0.02441326625390
O           -3.36216612048297       -0.90134326654205        0.38545759292348
C           -4.19185304159264       -1.01891108174660       -0.80457243803805
O           -1.69723085706280        0.01649123076050        1.96093750747744
C           -1.19155624044786       -1.24969233360782        2.48043927570704
H            1.54238231195779       -3.48982640363968        0.31582571062533
H            3.17461451139296       -3.71940058501489        0.97119790456760
H            2.46387489357083       -2.09512829667318        0.93182096309206
H            3.19905605293471       -3.79331776399924       -1.53091515610301
H            4.14148591864849       -2.40340913774999       -0.93390322809007
H            0.87889419725349       -0.54379210380151       -3.17326698329901
H            1.82623040857004        0.93281975770826       -2.87246697330104
H            2.62706698417668        2.12030848617499        1.42396701683767
H            1.06280943188620        2.87150851347794        1.83664442058092
H            0.56773961021080        1.00488964669660        3.42555305860063
H            2.09898167387210        0.20645370381603        2.98130733197582
H            2.11818859828018        1.76060337230451        3.83507163814383
H           -3.58685975586155       -1.32482457532217       -1.66247713315182
H           -4.69056925409868       -0.06765066936784       -1.00740375441156
H           -4.92769198023013       -1.78865573076748       -0.57217454329714
H           -1.90922741449755       -2.05328205253904        2.29686491752266
H           -1.07000520590142       -1.09586494864848        3.55253473366851
H           -0.22659807127618       -1.48252410450234        2.02108081724279
