 xtb: 6.7.1 (edcfbbe)
          04092505213D

 41 40  0     0  0            999 V2000
    4.5762   -0.9667   -2.0383 C   0  0  0  0  0  0  0  0  0  0  0  0
    3.7351   -2.0382   -1.3762 C   0  0  0  0  0  0  0  0  0  0  0  0
    3.1060   -1.5899   -0.1617 O   0  0  0  0  0  0  0  0  0  0  0  0
    2.2318   -0.2723    0.0051 P   0  0  0  0  0  0  0  0  0  0  0  0
    3.1918    1.4366    0.1369 S   0  0  0  0  0  0  0  0  0  0  0  0
    1.4166   -0.6655    1.3030 O   0  0  0  0  0  0  0  0  0  0  0  0
    1.6831   -0.1434    2.6231 C   0  0  0  0  0  0  0  0  0  0  0  0
    0.3789    0.2815    3.2667 C   0  0  0  0  0  0  0  0  0  0  0  0
    0.8028   -0.4516   -1.5437 S   0  0  0  0  0  0  0  0  0  0  0  0
    0.2515    1.2720   -1.5407 C   0  0  0  0  0  0  0  0  0  0  0  0
   -0.6849    1.7293   -0.0609 S   0  0  0  0  0  0  0  0  0  0  0  0
   -2.2192    0.2818   -0.2854 P   0  0  0  0  0  0  0  0  0  0  0  0
   -2.7906   -0.1145   -2.1097 S   0  0  0  0  0  0  0  0  0  0  0  0
   -3.4255    0.8208    0.5852 O   0  0  0  0  0  0  0  0  0  0  0  0
   -3.3679    1.0592    2.0143 C   0  0  0  0  0  0  0  0  0  0  0  0
   -3.0939    2.5199    2.3108 C   0  0  0  0  0  0  0  0  0  0  0  0
   -1.5925   -0.9317    0.5477 O   0  0  0  0  0  0  0  0  0  0  0  0
   -1.7152   -2.3039    0.1392 C   0  0  0  0  0  0  0  0  0  0  0  0
   -3.0719   -2.8621    0.5180 C   0  0  0  0  0  0  0  0  0  0  0  0
    5.0968   -1.3931   -2.8898 H   0  0  0  0  0  0  0  0  0  0  0  0
    3.9432   -0.1502   -2.3834 H   0  0  0  0  0  0  0  0  0  0  0  0
    5.3030   -0.5659   -1.3356 H   0  0  0  0  0  0  0  0  0  0  0  0
    4.3476   -2.8810   -1.0508 H   0  0  0  0  0  0  0  0  0  0  0  0
    2.9520   -2.3895   -2.0542 H   0  0  0  0  0  0  0  0  0  0  0  0
    2.1612   -0.9491    3.1842 H   0  0  0  0  0  0  0  0  0  0  0  0
    2.3758    0.7009    2.5376 H   0  0  0  0  0  0  0  0  0  0  0  0
   -0.0558    1.1129    2.7177 H   0  0  0  0  0  0  0  0  0  0  0  0
   -0.3196   -0.5508    3.2671 H   0  0  0  0  0  0  0  0  0  0  0  0
    0.5724    0.5911    4.2886 H   0  0  0  0  0  0  0  0  0  0  0  0
   -0.3791    1.3924   -2.4208 H   0  0  0  0  0  0  0  0  0  0  0  0
    1.1174    1.9340   -1.5721 H   0  0  0  0  0  0  0  0  0  0  0  0
   -4.3556    0.7643    2.3727 H   0  0  0  0  0  0  0  0  0  0  0  0
   -2.6047    0.4129    2.4524 H   0  0  0  0  0  0  0  0  0  0  0  0
   -2.1107    2.8097    1.9452 H   0  0  0  0  0  0  0  0  0  0  0  0
   -3.8404    3.1441    1.8275 H   0  0  0  0  0  0  0  0  0  0  0  0
   -3.1346    2.6769    3.3841 H   0  0  0  0  0  0  0  0  0  0  0  0
   -1.5594   -2.3660   -0.9429 H   0  0  0  0  0  0  0  0  0  0  0  0
   -0.8999   -2.8135    0.6559 H   0  0  0  0  0  0  0  0  0  0  0  0
   -3.8523   -2.3052    0.0001 H   0  0  0  0  0  0  0  0  0  0  0  0
   -3.1275   -3.9051    0.2229 H   0  0  0  0  0  0  0  0  0  0  0  0
   -3.2317   -2.7812    1.5899 H   0  0  0  0  0  0  0  0  0  0  0  0
  1  2  1  0  0  0  0
  2  3  1  0  0  0  0
  3  4  2  0  0  0  0
  4  5  2  0  0  0  0
  4  6  2  0  0  0  0
  6  7  1  0  0  0  0
  7  8  1  0  0  0  0
  4  9  1  0  0  0  0
  9 10  1  0  0  0  0
 10 11  1  0  0  0  0
 11 12  1  0  0  0  0
 12 13  2  0  0  0  0
 12 14  2  0  0  0  0
 14 15  1  0  0  0  0
 15 16  1  0  0  0  0
 12 17  1  0  0  0  0
 17 18  1  0  0  0  0
 18 19  1  0  0  0  0
  1 20  1  0  0  0  0
  1 21  1  0  0  0  0
  1 22  1  0  0  0  0
  2 23  1  0  0  0  0
  2 24  1  0  0  0  0
  7 25  1  0  0  0  0
  7 26  1  0  0  0  0
  8 27  1  0  0  0  0
  8 28  1  0  0  0  0
  8 29  1  0  0  0  0
 10 30  1  0  0  0  0
 10 31  1  0  0  0  0
 15 32  1  0  0  0  0
 15 33  1  0  0  0  0
 16 34  1  0  0  0  0
 16 35  1  0  0  0  0
 16 36  1  0  0  0  0
 18 37  1  0  0  0  0
 18 38  1  0  0  0  0
 19 39  1  0  0  0  0
 19 40  1  0  0  0  0
 19 41  1  0  0  0  0
M  END
