 xtb: 6.7.1 (edcfbbe)
          04032520073D

  9  9  0     0  0            999 V2000
   -0.4675   -0.7269    0.0000 C   0  0  0  0  0  0  0  0  0  0  0  0
   -0.3958    0.7683    0.0000 C   0  0  0  0  0  0  0  0  0  0  0  0
    0.8633   -0.0414   -0.0000 C   0  0  0  0  0  0  0  0  0  0  0  0
   -0.7868   -1.2234   -0.9033 H   0  0  0  0  0  0  0  0  0  0  0  0
   -0.7867   -1.2235    0.9033 H   0  0  0  0  0  0  0  0  0  0  0  0
   -0.6662    1.2931   -0.9032 H   0  0  0  0  0  0  0  0  0  0  0  0
   -0.6662    1.2931    0.9033 H   0  0  0  0  0  0  0  0  0  0  0  0
    1.4529   -0.0696   -0.9033 H   0  0  0  0  0  0  0  0  0  0  0  0
    1.4530   -0.0696    0.9033 H   0  0  0  0  0  0  0  0  0  0  0  0
  1  2  1  0  0  0  0
  1  3  1  0  0  0  0
  2  3  1  0  0  0  0
  1  4  1  0  0  0  0
  1  5  1  0  0  0  0
  2  6  1  0  0  0  0
  2  7  1  0  0  0  0
  3  8  1  0  0  0  0
  3  9  1  0  0  0  0
M  END
