 xtb: 6.7.1 (edcfbbe)
          04092505213D

 41 40  0     0  0            999 V2000
    3.6442   -0.7700   -2.7863 C   0  0  0  0  0  0  0  0  0  0  0  0
    2.2077   -1.0877   -2.4285 C   0  0  0  0  0  0  0  0  0  0  0  0
    2.0816   -1.4868   -1.0468 O   0  0  0  0  0  0  0  0  0  0  0  0
    2.1773   -0.4518    0.1399 P   0  0  0  0  0  0  0  0  0  0  0  0
    1.4263    1.3325   -0.2108 S   0  0  0  0  0  0  0  0  0  0  0  0
    3.7314   -0.4571    0.4685 O   0  0  0  0  0  0  0  0  0  0  0  0
    4.2878    0.3865    1.4966 C   0  0  0  0  0  0  0  0  0  0  0  0
    5.7969    0.3326    1.3724 C   0  0  0  0  0  0  0  0  0  0  0  0
    1.3686   -1.5845    1.7264 S   0  0  0  0  0  0  0  0  0  0  0  0
   -0.3304   -0.9727    1.6858 C   0  0  0  0  0  0  0  0  0  0  0  0
   -1.1190   -1.2552    0.0640 S   0  0  0  0  0  0  0  0  0  0  0  0
   -2.4529    0.3819    0.1106 P   0  0  0  0  0  0  0  0  0  0  0  0
   -1.9564    1.9287    1.2187 S   0  0  0  0  0  0  0  0  0  0  0  0
   -3.7714   -0.3603    0.5705 O   0  0  0  0  0  0  0  0  0  0  0  0
   -4.8902    0.3415    1.1503 C   0  0  0  0  0  0  0  0  0  0  0  0
   -5.6130    1.1827    0.1199 C   0  0  0  0  0  0  0  0  0  0  0  0
   -2.7708    0.6909   -1.4130 O   0  0  0  0  0  0  0  0  0  0  0  0
   -1.7963    1.2304   -2.3277 C   0  0  0  0  0  0  0  0  0  0  0  0
   -1.3816    0.1594   -3.3181 C   0  0  0  0  0  0  0  0  0  0  0  0
    4.2889   -1.6046   -2.5253 H   0  0  0  0  0  0  0  0  0  0  0  0
    3.7150   -0.5752   -3.8518 H   0  0  0  0  0  0  0  0  0  0  0  0
    3.9738    0.1126   -2.2403 H   0  0  0  0  0  0  0  0  0  0  0  0
    1.8285   -1.9458   -2.9846 H   0  0  0  0  0  0  0  0  0  0  0  0
    1.5665   -0.2166   -2.5977 H   0  0  0  0  0  0  0  0  0  0  0  0
    3.9063    1.4039    1.3572 H   0  0  0  0  0  0  0  0  0  0  0  0
    3.9537    0.0114    2.4682 H   0  0  0  0  0  0  0  0  0  0  0  0
    6.1372   -0.6942    1.4694 H   0  0  0  0  0  0  0  0  0  0  0  0
    6.1087    0.7175    0.4057 H   0  0  0  0  0  0  0  0  0  0  0  0
    6.2405    0.9353    2.1580 H   0  0  0  0  0  0  0  0  0  0  0  0
   -0.3427    0.1029    1.8867 H   0  0  0  0  0  0  0  0  0  0  0  0
   -0.8670   -1.5235    2.4545 H   0  0  0  0  0  0  0  0  0  0  0  0
   -5.5230   -0.4550    1.5435 H   0  0  0  0  0  0  0  0  0  0  0  0
   -4.5203    0.9669    1.9693 H   0  0  0  0  0  0  0  0  0  0  0  0
   -5.9035    0.5694   -0.7288 H   0  0  0  0  0  0  0  0  0  0  0  0
   -6.4966    1.6252    0.5690 H   0  0  0  0  0  0  0  0  0  0  0  0
   -4.9559    1.9779   -0.2302 H   0  0  0  0  0  0  0  0  0  0  0  0
   -2.2947    2.0624   -2.8289 H   0  0  0  0  0  0  0  0  0  0  0  0
   -0.9384    1.6153   -1.7666 H   0  0  0  0  0  0  0  0  0  0  0  0
   -0.6769    0.5814   -4.0275 H   0  0  0  0  0  0  0  0  0  0  0  0
   -0.9154   -0.6742   -2.7966 H   0  0  0  0  0  0  0  0  0  0  0  0
   -2.2545   -0.2075   -3.8500 H   0  0  0  0  0  0  0  0  0  0  0  0
  1  2  1  0  0  0  0
  2  3  1  0  0  0  0
  3  4  2  0  0  0  0
  4  5  2  0  0  0  0
  4  6  2  0  0  0  0
  6  7  1  0  0  0  0
  7  8  1  0  0  0  0
  4  9  1  0  0  0  0
  9 10  1  0  0  0  0
 10 11  1  0  0  0  0
 11 12  1  0  0  0  0
 12 13  2  0  0  0  0
 12 14  2  0  0  0  0
 14 15  1  0  0  0  0
 15 16  1  0  0  0  0
 12 17  2  0  0  0  0
 17 18  1  0  0  0  0
 18 19  1  0  0  0  0
  1 20  1  0  0  0  0
  1 21  1  0  0  0  0
  1 22  1  0  0  0  0
  2 23  1  0  0  0  0
  2 24  1  0  0  0  0
  7 25  1  0  0  0  0
  7 26  1  0  0  0  0
  8 27  1  0  0  0  0
  8 28  1  0  0  0  0
  8 29  1  0  0  0  0
 10 30  1  0  0  0  0
 10 31  1  0  0  0  0
 15 32  1  0  0  0  0
 15 33  1  0  0  0  0
 16 34  1  0  0  0  0
 16 35  1  0  0  0  0
 16 36  1  0  0  0  0
 18 37  1  0  0  0  0
 18 38  1  0  0  0  0
 19 39  1  0  0  0  0
 19 40  1  0  0  0  0
 19 41  1  0  0  0  0
M  END
