 xtb: 6.7.1 (edcfbbe)
          04092505213D

 41 40  0     0  0            999 V2000
    1.7039   -2.9440    0.5480 C   0  0  0  0  0  0  0  0  0  0  0  0
    1.5695   -1.7033    1.4076 C   0  0  0  0  0  0  0  0  0  0  0  0
    2.5838   -0.7267    1.1242 O   0  0  0  0  0  0  0  0  0  0  0  0
    2.6734    0.1857   -0.1793 P   0  0  0  0  0  0  0  0  0  0  0  0
    3.0927   -0.6651   -1.8933 S   0  0  0  0  0  0  0  0  0  0  0  0
    3.8377    1.1636    0.2218 O   0  0  0  0  0  0  0  0  0  0  0  0
    4.0906    1.6964    1.5457 C   0  0  0  0  0  0  0  0  0  0  0  0
    2.9502    2.5506    2.0561 C   0  0  0  0  0  0  0  0  0  0  0  0
    0.8706    1.3449   -0.1874 S   0  0  0  0  0  0  0  0  0  0  0  0
    0.1068    0.6750   -1.6759 C   0  0  0  0  0  0  0  0  0  0  0  0
   -0.7252   -0.9156   -1.3957 S   0  0  0  0  0  0  0  0  0  0  0  0
   -2.2917   -0.1542   -0.2086 P   0  0  0  0  0  0  0  0  0  0  0  0
   -3.0234    1.5969   -0.7169 S   0  0  0  0  0  0  0  0  0  0  0  0
   -1.6751   -0.2715    1.2418 O   0  0  0  0  0  0  0  0  0  0  0  0
   -2.1966    0.4597    2.3788 C   0  0  0  0  0  0  0  0  0  0  0  0
   -1.0787    1.2644    3.0104 C   0  0  0  0  0  0  0  0  0  0  0  0
   -3.3589   -1.3312   -0.1866 O   0  0  0  0  0  0  0  0  0  0  0  0
   -4.3071   -1.5333   -1.2535 C   0  0  0  0  0  0  0  0  0  0  0  0
   -5.5081   -2.2591   -0.6810 C   0  0  0  0  0  0  0  0  0  0  0  0
    1.5227   -2.7060   -0.4985 H   0  0  0  0  0  0  0  0  0  0  0  0
    2.7042   -3.3593    0.6405 H   0  0  0  0  0  0  0  0  0  0  0  0
    0.9753   -3.6813    0.8696 H   0  0  0  0  0  0  0  0  0  0  0  0
    1.7269   -1.9378    2.4626 H   0  0  0  0  0  0  0  0  0  0  0  0
    0.5839   -1.2459    1.2785 H   0  0  0  0  0  0  0  0  0  0  0  0
    4.2865    0.8590    2.2175 H   0  0  0  0  0  0  0  0  0  0  0  0
    5.0004    2.2820    1.4057 H   0  0  0  0  0  0  0  0  0  0  0  0
    3.2329    2.9893    3.0080 H   0  0  0  0  0  0  0  0  0  0  0  0
    2.7232    3.3443    1.3490 H   0  0  0  0  0  0  0  0  0  0  0  0
    2.0569    1.9449    2.1978 H   0  0  0  0  0  0  0  0  0  0  0  0
    0.8743    0.4934   -2.4293 H   0  0  0  0  0  0  0  0  0  0  0  0
   -0.6262    1.4077   -2.0122 H   0  0  0  0  0  0  0  0  0  0  0  0
   -3.0061    1.1138    2.0407 H   0  0  0  0  0  0  0  0  0  0  0  0
   -2.5936   -0.2900    3.0652 H   0  0  0  0  0  0  0  0  0  0  0  0
   -0.7027    1.9992    2.3019 H   0  0  0  0  0  0  0  0  0  0  0  0
   -1.4618    1.7769    3.8868 H   0  0  0  0  0  0  0  0  0  0  0  0
   -0.2652    0.6076    3.3054 H   0  0  0  0  0  0  0  0  0  0  0  0
   -4.5877   -0.5567   -1.6627 H   0  0  0  0  0  0  0  0  0  0  0  0
   -3.8175   -2.1225   -2.0330 H   0  0  0  0  0  0  0  0  0  0  0  0
   -6.2213   -2.4492   -1.4764 H   0  0  0  0  0  0  0  0  0  0  0  0
   -5.1959   -3.2027   -0.2433 H   0  0  0  0  0  0  0  0  0  0  0  0
   -5.9806   -1.6529    0.0868 H   0  0  0  0  0  0  0  0  0  0  0  0
  1  2  1  0  0  0  0
  2  3  1  0  0  0  0
  3  4  2  0  0  0  0
  4  5  2  0  0  0  0
  4  6  2  0  0  0  0
  6  7  1  0  0  0  0
  7  8  1  0  0  0  0
  4  9  1  0  0  0  0
  9 10  1  0  0  0  0
 10 11  1  0  0  0  0
 11 12  1  0  0  0  0
 12 13  2  0  0  0  0
 12 14  2  0  0  0  0
 14 15  1  0  0  0  0
 15 16  1  0  0  0  0
 12 17  2  0  0  0  0
 17 18  1  0  0  0  0
 18 19  1  0  0  0  0
  1 20  1  0  0  0  0
  1 21  1  0  0  0  0
  1 22  1  0  0  0  0
  2 23  1  0  0  0  0
  2 24  1  0  0  0  0
  7 25  1  0  0  0  0
  7 26  1  0  0  0  0
  8 27  1  0  0  0  0
  8 28  1  0  0  0  0
  8 29  1  0  0  0  0
 10 30  1  0  0  0  0
 10 31  1  0  0  0  0
 15 32  1  0  0  0  0
 15 33  1  0  0  0  0
 16 34  1  0  0  0  0
 16 35  1  0  0  0  0
 16 36  1  0  0  0  0
 18 37  1  0  0  0  0
 18 38  1  0  0  0  0
 19 39  1  0  0  0  0
 19 40  1  0  0  0  0
 19 41  1  0  0  0  0
M  END
