41
 xtb: 6.7.1 (edcfbbe)
C            4.51650903152129        2.00370797189678       -1.43245950393076
C            4.79129040589257        0.62164047701526       -0.89434509128687
O            3.58732232135073       -0.22150786878137       -0.88927490467607
P            2.43734629741044       -0.10084825167900        0.23327592795122
S            2.97411068579015        0.50944258135947        2.00397873299388
O            1.76355820880623       -1.55715215018386        0.14130726752360
C            2.19264704902772       -2.65806902865617        1.01845767597337
C            3.55360949863171       -3.18809462867029        0.63832707627518
S            1.00279718458386        1.07992181196030       -0.77792621431604
C           -0.09097588758287        1.56968881021700        0.61381832169512
S           -1.04166503000331        0.26372523080557        1.48406157397302
P           -2.47802050506033       -0.25207029241501        0.01208976043726
S           -1.99381590866800       -1.52549297366465       -1.38051731042000
O           -2.97269794755851        1.19483559159237       -0.48453161320782
C           -3.29805884804093        1.55718475973969       -1.86936135556822
C           -2.58823875698018        2.84291265190452       -2.20646718566998
O           -3.58994668029009       -0.75480881140479        1.06663657754203
C           -4.69485290410464       -1.63336789489109        0.65435105188445
C           -5.68819442911696       -0.91053575322520       -0.22274538978688
H            4.06435336966878        1.95565928792281       -2.42744949141716
H            3.85981152194628        2.57254337280247       -0.76837129309625
H            5.46795536164946        2.53979020011751       -1.51191569195194
H            5.19346890000911        0.65053000747489        0.12264665257627
H            5.48270451024438        0.07136089604526       -1.53555438051926
H            2.16422543899498       -2.30211539268412        2.05294109942392
H            1.41338874360232       -3.41013267888061        0.87956603540790
H            3.77171359156898       -4.06302151784811        1.25956897027748
H            3.57590755930902       -3.49530782039448       -0.41110660025494
H            4.33932705467227       -2.44601627777860        0.81021965607478
H           -0.77882461845098        2.31119343136698        0.19792778217451
H            0.51479806880046        2.04045330939708        1.39354625155717
H           -2.99817439059276        0.73979847922311       -2.53091525601372
H           -4.38530771200649        1.66892431665425       -1.90475780323812
H           -2.85178055648697        3.63654621302213       -1.50154969263313
H           -1.50242556700985        2.70749087356409       -2.20397470003634
H           -2.89069301021538        3.16011145522614       -3.20963899500392
H           -4.27026944910769       -2.51063214223706        0.15692150617148
H           -5.14176145709611       -1.94030080951672        1.60182068643551
H           -6.54513011276202       -1.56921968077983       -0.39784459810314
H           -6.04742561147563        0.00217344380925        0.26152720427160
H           -5.25660263392076       -0.65403944151836       -1.19544162999126
