 xtb: 6.7.1 (edcfbbe)
          04092505213D

 41 40  0     0  0            999 V2000
    4.2082    1.8423   -1.0368 C   0  0  0  0  0  0  0  0  0  0  0  0
    2.9011    1.2395   -1.5073 C   0  0  0  0  0  0  0  0  0  0  0  0
    2.6887   -0.0735   -0.9547 O   0  0  0  0  0  0  0  0  0  0  0  0
    2.3920   -0.3130    0.5818 P   0  0  0  0  0  0  0  0  0  0  0  0
    1.4251    1.1181    1.5157 S   0  0  0  0  0  0  0  0  0  0  0  0
    3.8441   -0.6199    1.1455 O   0  0  0  0  0  0  0  0  0  0  0  0
    4.1473   -0.6332    2.5520 C   0  0  0  0  0  0  0  0  0  0  0  0
    3.4905   -1.7956    3.2682 C   0  0  0  0  0  0  0  0  0  0  0  0
    1.4506   -2.1989    0.4786 S   0  0  0  0  0  0  0  0  0  0  0  0
   -0.2364   -1.5939    0.2860 C   0  0  0  0  0  0  0  0  0  0  0  0
   -0.4420   -0.7559   -1.3341 S   0  0  0  0  0  0  0  0  0  0  0  0
   -2.3374    0.0942   -0.9634 P   0  0  0  0  0  0  0  0  0  0  0  0
   -3.1415    1.0312   -2.4812 S   0  0  0  0  0  0  0  0  0  0  0  0
   -2.1507    0.9513    0.3700 O   0  0  0  0  0  0  0  0  0  0  0  0
   -1.7373    2.3292    0.3277 C   0  0  0  0  0  0  0  0  0  0  0  0
   -2.9348    3.2448    0.4826 C   0  0  0  0  0  0  0  0  0  0  0  0
   -3.0940   -1.1843   -0.4161 O   0  0  0  0  0  0  0  0  0  0  0  0
   -4.5365   -1.2715   -0.4272 C   0  0  0  0  0  0  0  0  0  0  0  0
   -5.1622   -0.3144    0.5644 C   0  0  0  0  0  0  0  0  0  0  0  0
    4.3753    2.7850   -1.5484 H   0  0  0  0  0  0  0  0  0  0  0  0
    4.1667    2.0241    0.0367 H   0  0  0  0  0  0  0  0  0  0  0  0
    5.0303    1.1634   -1.2470 H   0  0  0  0  0  0  0  0  0  0  0  0
    2.8901    1.0743   -2.5853 H   0  0  0  0  0  0  0  0  0  0  0  0
    2.0558    1.8762   -1.2247 H   0  0  0  0  0  0  0  0  0  0  0  0
    5.2354   -0.7035    2.5831 H   0  0  0  0  0  0  0  0  0  0  0  0
    3.8231    0.3188    2.9849 H   0  0  0  0  0  0  0  0  0  0  0  0
    3.7225   -2.7296    2.7627 H   0  0  0  0  0  0  0  0  0  0  0  0
    3.8525   -1.8377    4.2904 H   0  0  0  0  0  0  0  0  0  0  0  0
    2.4094   -1.6650    3.2809 H   0  0  0  0  0  0  0  0  0  0  0  0
   -0.4639   -0.8782    1.0772 H   0  0  0  0  0  0  0  0  0  0  0  0
   -0.8903   -2.4606    0.3250 H   0  0  0  0  0  0  0  0  0  0  0  0
   -1.0302    2.4437    1.1525 H   0  0  0  0  0  0  0  0  0  0  0  0
   -1.2215    2.5231   -0.6181 H   0  0  0  0  0  0  0  0  0  0  0  0
   -3.6044    3.1284   -0.3672 H   0  0  0  0  0  0  0  0  0  0  0  0
   -3.4702    3.0062    1.3970 H   0  0  0  0  0  0  0  0  0  0  0  0
   -2.5923    4.2735    0.5241 H   0  0  0  0  0  0  0  0  0  0  0  0
   -4.8874   -1.0621   -1.4424 H   0  0  0  0  0  0  0  0  0  0  0  0
   -4.7356   -2.3128   -0.1710 H   0  0  0  0  0  0  0  0  0  0  0  0
   -4.9755    0.7121    0.2529 H   0  0  0  0  0  0  0  0  0  0  0  0
   -6.2339   -0.4831    0.6008 H   0  0  0  0  0  0  0  0  0  0  0  0
   -4.7369   -0.4652    1.5531 H   0  0  0  0  0  0  0  0  0  0  0  0
  1  2  1  0  0  0  0
  2  3  1  0  0  0  0
  3  4  2  0  0  0  0
  4  5  2  0  0  0  0
  4  6  2  0  0  0  0
  6  7  1  0  0  0  0
  7  8  1  0  0  0  0
  4  9  1  0  0  0  0
  9 10  1  0  0  0  0
 10 11  1  0  0  0  0
 11 12  1  0  0  0  0
 12 13  2  0  0  0  0
 12 14  2  0  0  0  0
 14 15  1  0  0  0  0
 15 16  1  0  0  0  0
 12 17  2  0  0  0  0
 17 18  1  0  0  0  0
 18 19  1  0  0  0  0
  1 20  1  0  0  0  0
  1 21  1  0  0  0  0
  1 22  1  0  0  0  0
  2 23  1  0  0  0  0
  2 24  1  0  0  0  0
  7 25  1  0  0  0  0
  7 26  1  0  0  0  0
  8 27  1  0  0  0  0
  8 28  1  0  0  0  0
  8 29  1  0  0  0  0
 10 30  1  0  0  0  0
 10 31  1  0  0  0  0
 15 32  1  0  0  0  0
 15 33  1  0  0  0  0
 16 34  1  0  0  0  0
 16 35  1  0  0  0  0
 16 36  1  0  0  0  0
 18 37  1  0  0  0  0
 18 38  1  0  0  0  0
 19 39  1  0  0  0  0
 19 40  1  0  0  0  0
 19 41  1  0  0  0  0
M  END
