 xtb: 6.7.1 (edcfbbe)
          04092505203D

 41 40  0     0  0            999 V2000
    3.4112   -0.3249    3.1096 C   0  0  0  0  0  0  0  0  0  0  0  0
    1.9907   -0.5804    2.6523 C   0  0  0  0  0  0  0  0  0  0  0  0
    1.6732    0.1609    1.4570 O   0  0  0  0  0  0  0  0  0  0  0  0
    2.3271   -0.1851    0.0528 P   0  0  0  0  0  0  0  0  0  0  0  0
    2.7535   -2.0772   -0.2575 S   0  0  0  0  0  0  0  0  0  0  0  0
    3.5674    0.8064    0.0254 O   0  0  0  0  0  0  0  0  0  0  0  0
    4.6478    0.6649   -0.9133 C   0  0  0  0  0  0  0  0  0  0  0  0
    4.2103    0.9524   -2.3351 C   0  0  0  0  0  0  0  0  0  0  0  0
    0.9057    0.7078   -1.2255 S   0  0  0  0  0  0  0  0  0  0  0  0
   -0.1880   -0.7354   -1.3483 C   0  0  0  0  0  0  0  0  0  0  0  0
   -1.0200   -1.1404    0.2094 S   0  0  0  0  0  0  0  0  0  0  0  0
   -2.6471    0.2396    0.0809 P   0  0  0  0  0  0  0  0  0  0  0  0
   -3.0370    0.9198   -1.7212 S   0  0  0  0  0  0  0  0  0  0  0  0
   -2.4168    1.2811    1.2518 O   0  0  0  0  0  0  0  0  0  0  0  0
   -1.2657    2.1258    1.4142 C   0  0  0  0  0  0  0  0  0  0  0  0
   -1.2227    3.2472    0.3946 C   0  0  0  0  0  0  0  0  0  0  0  0
   -3.8556   -0.4929    0.7883 O   0  0  0  0  0  0  0  0  0  0  0  0
   -4.8071   -1.2750    0.0456 C   0  0  0  0  0  0  0  0  0  0  0  0
   -4.2065   -2.5717   -0.4602 C   0  0  0  0  0  0  0  0  0  0  0  0
    4.1126   -0.7259    2.3790 H   0  0  0  0  0  0  0  0  0  0  0  0
    3.5853    0.7427    3.2151 H   0  0  0  0  0  0  0  0  0  0  0  0
    3.5764   -0.8162    4.0633 H   0  0  0  0  0  0  0  0  0  0  0  0
    1.2590   -0.2304    3.3816 H   0  0  0  0  0  0  0  0  0  0  0  0
    1.8307   -1.6446    2.4510 H   0  0  0  0  0  0  0  0  0  0  0  0
    5.3915    1.3837   -0.5668 H   0  0  0  0  0  0  0  0  0  0  0  0
    5.0451   -0.3521   -0.8326 H   0  0  0  0  0  0  0  0  0  0  0  0
    3.7157    1.9190   -2.3906 H   0  0  0  0  0  0  0  0  0  0  0  0
    5.0790    0.9532   -2.9857 H   0  0  0  0  0  0  0  0  0  0  0  0
    3.5164    0.1845   -2.6749 H   0  0  0  0  0  0  0  0  0  0  0  0
    0.4000   -1.6097   -1.6246 H   0  0  0  0  0  0  0  0  0  0  0  0
   -0.9338   -0.4929   -2.1068 H   0  0  0  0  0  0  0  0  0  0  0  0
   -1.3788    2.5184    2.4268 H   0  0  0  0  0  0  0  0  0  0  0  0
   -0.3578    1.5163    1.3622 H   0  0  0  0  0  0  0  0  0  0  0  0
   -2.1540    3.8075    0.4150 H   0  0  0  0  0  0  0  0  0  0  0  0
   -0.3966    3.9107    0.6294 H   0  0  0  0  0  0  0  0  0  0  0  0
   -1.0767    2.8490   -0.6079 H   0  0  0  0  0  0  0  0  0  0  0  0
   -5.6110   -1.4561    0.7603 H   0  0  0  0  0  0  0  0  0  0  0  0
   -5.1808   -0.6724   -0.7888 H   0  0  0  0  0  0  0  0  0  0  0  0
   -3.4554   -2.3634   -1.2210 H   0  0  0  0  0  0  0  0  0  0  0  0
   -3.7375   -3.1142    0.3569 H   0  0  0  0  0  0  0  0  0  0  0  0
   -4.9889   -3.1836   -0.8977 H   0  0  0  0  0  0  0  0  0  0  0  0
  1  2  1  0  0  0  0
  2  3  1  0  0  0  0
  3  4  2  0  0  0  0
  4  5  2  0  0  0  0
  4  6  2  0  0  0  0
  6  7  1  0  0  0  0
  7  8  1  0  0  0  0
  4  9  1  0  0  0  0
  9 10  1  0  0  0  0
 10 11  1  0  0  0  0
 11 12  1  0  0  0  0
 12 13  2  0  0  0  0
 12 14  2  0  0  0  0
 14 15  1  0  0  0  0
 15 16  1  0  0  0  0
 12 17  2  0  0  0  0
 17 18  1  0  0  0  0
 18 19  1  0  0  0  0
  1 20  1  0  0  0  0
  1 21  1  0  0  0  0
  1 22  1  0  0  0  0
  2 23  1  0  0  0  0
  2 24  1  0  0  0  0
  7 25  1  0  0  0  0
  7 26  1  0  0  0  0
  8 27  1  0  0  0  0
  8 28  1  0  0  0  0
  8 29  1  0  0  0  0
 10 30  1  0  0  0  0
 10 31  1  0  0  0  0
 15 32  1  0  0  0  0
 15 33  1  0  0  0  0
 16 34  1  0  0  0  0
 16 35  1  0  0  0  0
 16 36  1  0  0  0  0
 18 37  1  0  0  0  0
 18 38  1  0  0  0  0
 19 39  1  0  0  0  0
 19 40  1  0  0  0  0
 19 41  1  0  0  0  0
M  END
