38
 xtb: 6.7.1 (edcfbbe)
C            4.55882833668990        0.18216150513093       -1.98832840709239
C            4.10799868773096       -1.16828729166906       -2.49288240962294
O            2.72966343351565       -1.45305009333545       -2.07807508780512
C            2.54848674631470       -1.91123882788123       -0.83310437129701
O            3.44648359764621       -2.14735702708792       -0.04524125249232
C            1.08015129284304       -2.11386667945737       -0.52912706425410
C            0.33250842926352       -0.76377536011418       -0.47647764005463
H            0.42752656335147       -0.24700477948805       -1.43359317889427
C            0.97908094707447        0.11982154798837        0.58001782994102
O            1.91881433287175        0.84141878205374        0.29414443901853
O            0.48425799471884       -0.04918503056178        1.80121597902208
C            1.11735432170919        0.71472155217966        2.88655940964134
C            0.52803538998014        2.10178263890449        2.97696401369792
S           -1.45605219022766       -1.14891019409047       -0.20958009886251
P           -2.29663666150462        0.80066902867416       -0.24751671463422
S           -1.37021854065905        2.09962108335383       -1.35171305594429
O           -3.83005911543395        0.44832791765750       -0.59486239869152
C           -4.20851439185446        0.09919980313109       -1.95699207531423
O           -2.44146420238594        1.32282701703208        1.26164448028152
C           -2.96397563493819        0.46607800599506        2.32182117790200
H            5.55171955777080        0.39449399110038       -2.39747592280062
H            3.87561987890389        0.96872305730553       -2.32093762088951
H            4.62554431787534        0.20357220808355       -0.89775774488178
H            4.75074298962445       -1.97941179841801       -2.14202563246628
H            4.05770153838036       -1.19294026087953       -3.58257770107148
H            0.99952899475256       -2.63660425165656        0.42570362791080
H            0.64168452367390       -2.72876491201648       -1.32137951892217
H            0.89983809375058        0.12275870679927        3.77688463345170
H            2.19544275159480        0.72990035195447        2.71194649245025
H            0.67679519899423        2.65975122092339        2.04850127030464
H           -0.54039076069152        2.05953561652449        3.20277291039215
H            1.02942913933799        2.64210050714167        3.78578683422178
H           -4.03826601021163        0.95177855731429       -2.61879788711142
H           -5.27074386032385       -0.13992953218803       -1.91276279070112
H           -3.64268036100278       -0.77084877953386       -2.30104429261224
H           -3.13887807951187        1.12826040031655        3.16956603716050
H           -2.22167079983186       -0.29242713801469        2.58057614745508
H           -3.90241348304467       -0.00103774751564        2.01386303328779
