 xtb: 6.7.1 (edcfbbe)
          04092505213D

 41 40  0     0  0            999 V2000
    2.7640   -0.7826   -2.8419 C   0  0  0  0  0  0  0  0  0  0  0  0
    3.5070    0.0046   -1.7812 C   0  0  0  0  0  0  0  0  0  0  0  0
    2.5936    0.6591   -0.8678 O   0  0  0  0  0  0  0  0  0  0  0  0
    2.0747    0.0243    0.4849 P   0  0  0  0  0  0  0  0  0  0  0  0
    1.0944    1.3136    1.5799 S   0  0  0  0  0  0  0  0  0  0  0  0
    3.3674   -0.5794    1.2205 O   0  0  0  0  0  0  0  0  0  0  0  0
    4.1483    0.1858    2.1563 C   0  0  0  0  0  0  0  0  0  0  0  0
    4.9720    1.2553    1.4669 C   0  0  0  0  0  0  0  0  0  0  0  0
    1.1561   -1.8273    0.0499 S   0  0  0  0  0  0  0  0  0  0  0  0
   -0.2021   -1.7625    1.2593 C   0  0  0  0  0  0  0  0  0  0  0  0
   -1.8470   -1.7537    0.4978 S   0  0  0  0  0  0  0  0  0  0  0  0
   -1.9079    0.1858   -0.3889 P   0  0  0  0  0  0  0  0  0  0  0  0
   -0.5173    0.6668   -1.6783 S   0  0  0  0  0  0  0  0  0  0  0  0
   -2.0188    1.2204    0.7881 O   0  0  0  0  0  0  0  0  0  0  0  0
   -3.0075    1.1523    1.8465 C   0  0  0  0  0  0  0  0  0  0  0  0
   -4.2034    2.0217    1.5189 C   0  0  0  0  0  0  0  0  0  0  0  0
   -3.3733    0.1677   -0.9998 O   0  0  0  0  0  0  0  0  0  0  0  0
   -3.6833   -0.6059   -2.1783 C   0  0  0  0  0  0  0  0  0  0  0  0
   -4.9869   -0.0851   -2.7483 C   0  0  0  0  0  0  0  0  0  0  0  0
    3.4628   -1.0820   -3.6165 H   0  0  0  0  0  0  0  0  0  0  0  0
    2.3020   -1.6699   -2.4151 H   0  0  0  0  0  0  0  0  0  0  0  0
    1.9821   -0.1644   -3.2773 H   0  0  0  0  0  0  0  0  0  0  0  0
    4.0625    0.8331   -2.2244 H   0  0  0  0  0  0  0  0  0  0  0  0
    4.1814   -0.6378   -1.2087 H   0  0  0  0  0  0  0  0  0  0  0  0
    3.4678    0.6374    2.8852 H   0  0  0  0  0  0  0  0  0  0  0  0
    4.7770   -0.5593    2.6454 H   0  0  0  0  0  0  0  0  0  0  0  0
    5.6310    0.8118    0.7249 H   0  0  0  0  0  0  0  0  0  0  0  0
    4.3113    1.9683    0.9735 H   0  0  0  0  0  0  0  0  0  0  0  0
    5.5670    1.7819    2.2065 H   0  0  0  0  0  0  0  0  0  0  0  0
   -0.0785   -0.8682    1.8756 H   0  0  0  0  0  0  0  0  0  0  0  0
   -0.1656   -2.6693    1.8569 H   0  0  0  0  0  0  0  0  0  0  0  0
   -3.3035    0.1091    1.9889 H   0  0  0  0  0  0  0  0  0  0  0  0
   -2.4767    1.5147    2.7295 H   0  0  0  0  0  0  0  0  0  0  0  0
   -3.8812    3.0435    1.3375 H   0  0  0  0  0  0  0  0  0  0  0  0
   -4.7066    1.6492    0.6308 H   0  0  0  0  0  0  0  0  0  0  0  0
   -4.8922    2.0056    2.3578 H   0  0  0  0  0  0  0  0  0  0  0  0
   -2.8595   -0.4963   -2.8912 H   0  0  0  0  0  0  0  0  0  0  0  0
   -3.7655   -1.6548   -1.8822 H   0  0  0  0  0  0  0  0  0  0  0  0
   -5.7814   -0.1874   -2.0149 H   0  0  0  0  0  0  0  0  0  0  0  0
   -4.8849    0.9629   -3.0159 H   0  0  0  0  0  0  0  0  0  0  0  0
   -5.2400   -0.6577   -3.6343 H   0  0  0  0  0  0  0  0  0  0  0  0
  1  2  1  0  0  0  0
  2  3  1  0  0  0  0
  3  4  2  0  0  0  0
  4  5  2  0  0  0  0
  4  6  1  0  0  0  0
  6  7  1  0  0  0  0
  7  8  1  0  0  0  0
  4  9  1  0  0  0  0
  9 10  1  0  0  0  0
 10 11  1  0  0  0  0
 11 12  1  0  0  0  0
 12 13  2  0  0  0  0
 12 14  2  0  0  0  0
 14 15  1  0  0  0  0
 15 16  1  0  0  0  0
 12 17  2  0  0  0  0
 17 18  1  0  0  0  0
 18 19  1  0  0  0  0
  1 20  1  0  0  0  0
  1 21  1  0  0  0  0
  1 22  1  0  0  0  0
  2 23  1  0  0  0  0
  2 24  1  0  0  0  0
  7 25  1  0  0  0  0
  7 26  1  0  0  0  0
  8 27  1  0  0  0  0
  8 28  1  0  0  0  0
  8 29  1  0  0  0  0
 10 30  1  0  0  0  0
 10 31  1  0  0  0  0
 15 32  1  0  0  0  0
 15 33  1  0  0  0  0
 16 34  1  0  0  0  0
 16 35  1  0  0  0  0
 16 36  1  0  0  0  0
 18 37  1  0  0  0  0
 18 38  1  0  0  0  0
 19 39  1  0  0  0  0
 19 40  1  0  0  0  0
 19 41  1  0  0  0  0
M  END
