 xtb: 6.7.1 (edcfbbe)
          04092505213D

 41 40  0     0  0            999 V2000
    4.0360   -1.1166   -2.7622 C   0  0  0  0  0  0  0  0  0  0  0  0
    4.2794    0.1405   -1.9529 C   0  0  0  0  0  0  0  0  0  0  0  0
    3.7246    0.0475   -0.6288 O   0  0  0  0  0  0  0  0  0  0  0  0
    2.1571   -0.0004   -0.3607 P   0  0  0  0  0  0  0  0  0  0  0  0
    1.1287    1.1743   -1.5565 S   0  0  0  0  0  0  0  0  0  0  0  0
    2.1089    0.2862    1.1938 O   0  0  0  0  0  0  0  0  0  0  0  0
    2.5242    1.5528    1.7530 C   0  0  0  0  0  0  0  0  0  0  0  0
    2.3429    1.4679    3.2530 C   0  0  0  0  0  0  0  0  0  0  0  0
    1.6359   -2.0324   -0.3603 S   0  0  0  0  0  0  0  0  0  0  0  0
   -0.0935   -1.9047   -0.8993 C   0  0  0  0  0  0  0  0  0  0  0  0
   -1.2914   -1.8457    0.4699 S   0  0  0  0  0  0  0  0  0  0  0  0
   -1.9409    0.1633    0.5037 P   0  0  0  0  0  0  0  0  0  0  0  0
   -0.9297    1.5866    1.3780 S   0  0  0  0  0  0  0  0  0  0  0  0
   -3.3427    0.0496    1.2366 O   0  0  0  0  0  0  0  0  0  0  0  0
   -4.3950   -0.8555    0.8237 C   0  0  0  0  0  0  0  0  0  0  0  0
   -4.5194   -2.0009    1.8080 C   0  0  0  0  0  0  0  0  0  0  0  0
   -2.2232    0.3417   -1.0620 O   0  0  0  0  0  0  0  0  0  0  0  0
   -2.3688    1.6399   -1.6641 C   0  0  0  0  0  0  0  0  0  0  0  0
   -3.6686    2.3008   -1.2559 C   0  0  0  0  0  0  0  0  0  0  0  0
    2.9734   -1.2197   -2.9769 H   0  0  0  0  0  0  0  0  0  0  0  0
    4.5801   -1.0498   -3.6989 H   0  0  0  0  0  0  0  0  0  0  0  0
    4.3695   -1.9916   -2.2103 H   0  0  0  0  0  0  0  0  0  0  0  0
    3.8390    1.0105   -2.4505 H   0  0  0  0  0  0  0  0  0  0  0  0
    5.3426    0.3102   -1.7782 H   0  0  0  0  0  0  0  0  0  0  0  0
    3.5682    1.7226    1.4780 H   0  0  0  0  0  0  0  0  0  0  0  0
    1.8978    2.3411    1.3229 H   0  0  0  0  0  0  0  0  0  0  0  0
    2.9142    0.6339    3.6499 H   0  0  0  0  0  0  0  0  0  0  0  0
    2.6832    2.3933    3.7055 H   0  0  0  0  0  0  0  0  0  0  0  0
    1.2908    1.3225    3.4842 H   0  0  0  0  0  0  0  0  0  0  0  0
   -0.3103   -2.8152   -1.4510 H   0  0  0  0  0  0  0  0  0  0  0  0
   -0.2116   -1.0175   -1.5239 H   0  0  0  0  0  0  0  0  0  0  0  0
   -5.2995   -0.2445    0.8146 H   0  0  0  0  0  0  0  0  0  0  0  0
   -4.1822   -1.2177   -0.1851 H   0  0  0  0  0  0  0  0  0  0  0  0
   -3.6112   -2.5996    1.8103 H   0  0  0  0  0  0  0  0  0  0  0  0
   -4.6847   -1.6123    2.8090 H   0  0  0  0  0  0  0  0  0  0  0  0
   -5.3591   -2.6260    1.5215 H   0  0  0  0  0  0  0  0  0  0  0  0
   -1.5100    2.2562   -1.3794 H   0  0  0  0  0  0  0  0  0  0  0  0
   -2.3277    1.4398   -2.7359 H   0  0  0  0  0  0  0  0  0  0  0  0
   -3.7600    3.2544   -1.7661 H   0  0  0  0  0  0  0  0  0  0  0  0
   -4.5133    1.6686   -1.5175 H   0  0  0  0  0  0  0  0  0  0  0  0
   -3.6707    2.4743   -0.1798 H   0  0  0  0  0  0  0  0  0  0  0  0
  1  2  1  0  0  0  0
  2  3  1  0  0  0  0
  3  4  2  0  0  0  0
  4  5  2  0  0  0  0
  4  6  2  0  0  0  0
  6  7  1  0  0  0  0
  7  8  1  0  0  0  0
  4  9  1  0  0  0  0
  9 10  1  0  0  0  0
 10 11  1  0  0  0  0
 11 12  1  0  0  0  0
 12 13  2  0  0  0  0
 12 14  2  0  0  0  0
 14 15  1  0  0  0  0
 15 16  1  0  0  0  0
 12 17  1  0  0  0  0
 17 18  1  0  0  0  0
 18 19  1  0  0  0  0
  1 20  1  0  0  0  0
  1 21  1  0  0  0  0
  1 22  1  0  0  0  0
  2 23  1  0  0  0  0
  2 24  1  0  0  0  0
  7 25  1  0  0  0  0
  7 26  1  0  0  0  0
  8 27  1  0  0  0  0
  8 28  1  0  0  0  0
  8 29  1  0  0  0  0
 10 30  1  0  0  0  0
 10 31  1  0  0  0  0
 15 32  1  0  0  0  0
 15 33  1  0  0  0  0
 16 34  1  0  0  0  0
 16 35  1  0  0  0  0
 16 36  1  0  0  0  0
 18 37  1  0  0  0  0
 18 38  1  0  0  0  0
 19 39  1  0  0  0  0
 19 40  1  0  0  0  0
 19 41  1  0  0  0  0
M  END
