 xtb: 6.7.1 (edcfbbe)
          04092505203D

 41 40  0     0  0            999 V2000
    2.1897   -2.6398    2.3449 C   0  0  0  0  0  0  0  0  0  0  0  0
    1.2862   -1.9778    1.3236 C   0  0  0  0  0  0  0  0  0  0  0  0
    1.7273   -0.6260    1.1058 O   0  0  0  0  0  0  0  0  0  0  0  0
    2.3088   -0.0661   -0.2710 P   0  0  0  0  0  0  0  0  0  0  0  0
    2.9046   -1.4088   -1.5537 S   0  0  0  0  0  0  0  0  0  0  0  0
    3.4683    0.8898    0.2011 O   0  0  0  0  0  0  0  0  0  0  0  0
    3.2733    1.9564    1.1667 C   0  0  0  0  0  0  0  0  0  0  0  0
    4.5652    2.7420    1.2432 C   0  0  0  0  0  0  0  0  0  0  0  0
    0.8442    1.3264   -0.9716 S   0  0  0  0  0  0  0  0  0  0  0  0
   -0.0215    0.2005   -2.0901 C   0  0  0  0  0  0  0  0  0  0  0  0
   -0.8467   -1.1657   -1.2288 S   0  0  0  0  0  0  0  0  0  0  0  0
   -2.1233    0.0365   -0.0429 P   0  0  0  0  0  0  0  0  0  0  0  0
   -2.8666    1.6521   -0.8735 S   0  0  0  0  0  0  0  0  0  0  0  0
   -1.1914    0.2455    1.2222 O   0  0  0  0  0  0  0  0  0  0  0  0
   -1.3270    1.3819    2.0986 C   0  0  0  0  0  0  0  0  0  0  0  0
   -2.6046    1.3129    2.9080 C   0  0  0  0  0  0  0  0  0  0  0  0
   -3.1928   -0.9863    0.5329 O   0  0  0  0  0  0  0  0  0  0  0  0
   -4.4357   -1.2646   -0.1351 C   0  0  0  0  0  0  0  0  0  0  0  0
   -4.2301   -2.0222   -1.4309 C   0  0  0  0  0  0  0  0  0  0  0  0
    3.2054   -2.6938    1.9592 H   0  0  0  0  0  0  0  0  0  0  0  0
    2.1918   -2.0725    3.2712 H   0  0  0  0  0  0  0  0  0  0  0  0
    1.8290   -3.6447    2.5387 H   0  0  0  0  0  0  0  0  0  0  0  0
    0.2547   -1.9092    1.6769 H   0  0  0  0  0  0  0  0  0  0  0  0
    1.3099   -2.5222    0.3738 H   0  0  0  0  0  0  0  0  0  0  0  0
    2.4429    2.5811    0.8254 H   0  0  0  0  0  0  0  0  0  0  0  0
    3.0174    1.5033    2.1265 H   0  0  0  0  0  0  0  0  0  0  0  0
    4.8034    3.1631    0.2708 H   0  0  0  0  0  0  0  0  0  0  0  0
    4.4519    3.5444    1.9650 H   0  0  0  0  0  0  0  0  0  0  0  0
    5.3788    2.0912    1.5505 H   0  0  0  0  0  0  0  0  0  0  0  0
    0.6905   -0.2544   -2.7782 H   0  0  0  0  0  0  0  0  0  0  0  0
   -0.7606    0.8024   -2.6174 H   0  0  0  0  0  0  0  0  0  0  0  0
   -0.4393    1.3323    2.7310 H   0  0  0  0  0  0  0  0  0  0  0  0
   -1.2983    2.2927    1.4914 H   0  0  0  0  0  0  0  0  0  0  0  0
   -2.6602    0.3701    3.4457 H   0  0  0  0  0  0  0  0  0  0  0  0
   -2.6287    2.1364    3.6148 H   0  0  0  0  0  0  0  0  0  0  0  0
   -3.4650    1.3910    2.2442 H   0  0  0  0  0  0  0  0  0  0  0  0
   -4.9974   -1.8531    0.5915 H   0  0  0  0  0  0  0  0  0  0  0  0
   -4.9471   -0.3150   -0.3228 H   0  0  0  0  0  0  0  0  0  0  0  0
   -3.7204   -1.3894   -2.1564 H   0  0  0  0  0  0  0  0  0  0  0  0
   -3.6270   -2.9102   -1.2588 H   0  0  0  0  0  0  0  0  0  0  0  0
   -5.1946   -2.3130   -1.8347 H   0  0  0  0  0  0  0  0  0  0  0  0
  1  2  1  0  0  0  0
  2  3  1  0  0  0  0
  3  4  2  0  0  0  0
  4  5  2  0  0  0  0
  4  6  2  0  0  0  0
  6  7  1  0  0  0  0
  7  8  1  0  0  0  0
  4  9  1  0  0  0  0
  9 10  1  0  0  0  0
 10 11  1  0  0  0  0
 11 12  1  0  0  0  0
 12 13  2  0  0  0  0
 12 14  2  0  0  0  0
 14 15  1  0  0  0  0
 15 16  1  0  0  0  0
 12 17  2  0  0  0  0
 17 18  1  0  0  0  0
 18 19  1  0  0  0  0
  1 20  1  0  0  0  0
  1 21  1  0  0  0  0
  1 22  1  0  0  0  0
  2 23  1  0  0  0  0
  2 24  1  0  0  0  0
  7 25  1  0  0  0  0
  7 26  1  0  0  0  0
  8 27  1  0  0  0  0
  8 28  1  0  0  0  0
  8 29  1  0  0  0  0
 10 30  1  0  0  0  0
 10 31  1  0  0  0  0
 15 32  1  0  0  0  0
 15 33  1  0  0  0  0
 16 34  1  0  0  0  0
 16 35  1  0  0  0  0
 16 36  1  0  0  0  0
 18 37  1  0  0  0  0
 18 38  1  0  0  0  0
 19 39  1  0  0  0  0
 19 40  1  0  0  0  0
 19 41  1  0  0  0  0
M  END
