 xtb: 6.7.1 (edcfbbe)
          04092514023D

 41 40  0     0  0            999 V2000
    5.6148   -0.0715   -0.8909 C   0  0  0  0  0  0  0  0  0  0  0  0
    4.6080   -0.9369   -0.1565 C   0  0  0  0  0  0  0  0  0  0  0  0
    3.5759   -0.1259    0.4438 O   0  0  0  0  0  0  0  0  0  0  0  0
    2.1426    0.0762   -0.2154 P   0  0  0  0  0  0  0  0  0  0  0  0
    2.1098    0.6504   -2.0928 S   0  0  0  0  0  0  0  0  0  0  0  0
    1.4680    1.0536    0.8326 O   0  0  0  0  0  0  0  0  0  0  0  0
    1.4855    2.4853    0.6577 C   0  0  0  0  0  0  0  0  0  0  0  0
    2.8718    3.0627    0.8455 C   0  0  0  0  0  0  0  0  0  0  0  0
    1.1988   -1.7622    0.2123 S   0  0  0  0  0  0  0  0  0  0  0  0
   -0.0395   -1.8326   -1.1328 C   0  0  0  0  0  0  0  0  0  0  0  0
   -1.7176   -2.1496   -0.5357 S   0  0  0  0  0  0  0  0  0  0  0  0
   -2.2018   -0.2419    0.1945 P   0  0  0  0  0  0  0  0  0  0  0  0
   -1.6215    1.3174   -0.8559 S   0  0  0  0  0  0  0  0  0  0  0  0
   -1.5834   -0.3357    1.6513 O   0  0  0  0  0  0  0  0  0  0  0  0
   -1.5146    0.8068    2.5310 C   0  0  0  0  0  0  0  0  0  0  0  0
   -2.6815    0.8277    3.4978 C   0  0  0  0  0  0  0  0  0  0  0  0
   -3.7631   -0.3153    0.4847 O   0  0  0  0  0  0  0  0  0  0  0  0
   -4.7768    0.1009   -0.4484 C   0  0  0  0  0  0  0  0  0  0  0  0
   -4.8795   -0.8142   -1.6512 C   0  0  0  0  0  0  0  0  0  0  0  0
    5.1390    0.4327   -1.7294 H   0  0  0  0  0  0  0  0  0  0  0  0
    6.0290    0.6745   -0.2184 H   0  0  0  0  0  0  0  0  0  0  0  0
    6.4173   -0.6990   -1.2657 H   0  0  0  0  0  0  0  0  0  0  0  0
    5.0733   -1.4608    0.6807 H   0  0  0  0  0  0  0  0  0  0  0  0
    4.1520   -1.6652   -0.8328 H   0  0  0  0  0  0  0  0  0  0  0  0
    1.0932    2.7171   -0.3385 H   0  0  0  0  0  0  0  0  0  0  0  0
    0.7896    2.8508    1.4142 H   0  0  0  0  0  0  0  0  0  0  0  0
    3.5325    2.7059    0.0567 H   0  0  0  0  0  0  0  0  0  0  0  0
    2.8154    4.1459    0.7964 H   0  0  0  0  0  0  0  0  0  0  0  0
    3.2766    2.7626    1.8084 H   0  0  0  0  0  0  0  0  0  0  0  0
    0.2084   -2.6746   -1.7744 H   0  0  0  0  0  0  0  0  0  0  0  0
   -0.0074   -0.8929   -1.6907 H   0  0  0  0  0  0  0  0  0  0  0  0
   -0.5627    0.6953    3.0544 H   0  0  0  0  0  0  0  0  0  0  0  0
   -1.4897    1.7168    1.9207 H   0  0  0  0  0  0  0  0  0  0  0  0
   -2.7189   -0.1042    4.0547 H   0  0  0  0  0  0  0  0  0  0  0  0
   -2.5518    1.6545    4.1898 H   0  0  0  0  0  0  0  0  0  0  0  0
   -3.6186    0.9542    2.9613 H   0  0  0  0  0  0  0  0  0  0  0  0
   -5.6941    0.0846    0.1425 H   0  0  0  0  0  0  0  0  0  0  0  0
   -4.5538    1.1250   -0.7638 H   0  0  0  0  0  0  0  0  0  0  0  0
   -3.9655   -0.7634   -2.2411 H   0  0  0  0  0  0  0  0  0  0  0  0
   -5.0387   -1.8426   -1.3384 H   0  0  0  0  0  0  0  0  0  0  0  0
   -5.7134   -0.4921   -2.2678 H   0  0  0  0  0  0  0  0  0  0  0  0
  1  2  1  0  0  0  0
  2  3  1  0  0  0  0
  3  4  2  0  0  0  0
  4  5  2  0  0  0  0
  4  6  2  0  0  0  0
  6  7  1  0  0  0  0
  7  8  1  0  0  0  0
  4  9  1  0  0  0  0
  9 10  1  0  0  0  0
 10 11  1  0  0  0  0
 11 12  1  0  0  0  0
 12 13  2  0  0  0  0
 12 14  2  0  0  0  0
 14 15  1  0  0  0  0
 15 16  1  0  0  0  0
 12 17  2  0  0  0  0
 17 18  1  0  0  0  0
 18 19  1  0  0  0  0
  1 20  1  0  0  0  0
  1 21  1  0  0  0  0
  1 22  1  0  0  0  0
  2 23  1  0  0  0  0
  2 24  1  0  0  0  0
  7 25  1  0  0  0  0
  7 26  1  0  0  0  0
  8 27  1  0  0  0  0
  8 28  1  0  0  0  0
  8 29  1  0  0  0  0
 10 30  1  0  0  0  0
 10 31  1  0  0  0  0
 15 32  1  0  0  0  0
 15 33  1  0  0  0  0
 16 34  1  0  0  0  0
 16 35  1  0  0  0  0
 16 36  1  0  0  0  0
 18 37  1  0  0  0  0
 18 38  1  0  0  0  0
 19 39  1  0  0  0  0
 19 40  1  0  0  0  0
 19 41  1  0  0  0  0
M  END
