 xtb: 6.7.1 (edcfbbe)
          04092507313D

 38 37  0     0  0            999 V2000
    2.2045   -3.7241    0.7128 C   0  0  0  0  0  0  0  0  0  0  0  0
    2.7775   -2.3207    0.6738 C   0  0  0  0  0  0  0  0  0  0  0  0
    2.3306   -1.6784   -0.5356 O   0  0  0  0  0  0  0  0  0  0  0  0
    2.0728   -0.3928   -0.5276 C   0  0  0  0  0  0  0  0  0  0  0  0
    2.1778    0.3396    0.4361 O   0  0  0  0  0  0  0  0  0  0  0  0
    1.6461    0.1104   -1.8943 C   0  0  0  0  0  0  0  0  0  0  0  0
    0.3435    0.9105   -1.8019 C   0  0  0  0  0  0  0  0  0  0  0  0
    0.2323    1.5362   -2.6902 H   0  0  0  0  0  0  0  0  0  0  0  0
    0.3148    1.7946   -0.5689 C   0  0  0  0  0  0  0  0  0  0  0  0
   -0.4706    1.6046    0.3455 O   0  0  0  0  0  0  0  0  0  0  0  0
    1.1471    2.7846   -0.6609 O   0  0  0  0  0  0  0  0  0  0  0  0
    1.3196    3.6903    0.4532 C   0  0  0  0  0  0  0  0  0  0  0  0
    2.7557    3.6084    0.9387 C   0  0  0  0  0  0  0  0  0  0  0  0
   -1.1373   -0.1582   -1.7920 S   0  0  0  0  0  0  0  0  0  0  0  0
   -1.7068   -0.4832    0.2257 P   0  0  0  0  0  0  0  0  0  0  0  0
   -0.4926   -1.0880    1.6506 S   0  0  0  0  0  0  0  0  0  0  0  0
   -2.8721    0.5344    0.5990 O   0  0  0  0  0  0  0  0  0  0  0  0
   -2.8694    1.4040    1.7309 C   0  0  0  0  0  0  0  0  0  0  0  0
   -2.7393   -1.6699   -0.1342 O   0  0  0  0  0  0  0  0  0  0  0  0
   -2.2920   -2.9840   -0.4666 C   0  0  0  0  0  0  0  0  0  0  0  0
    1.1234   -3.6775    0.8139 H   0  0  0  0  0  0  0  0  0  0  0  0
    2.4566   -4.2546   -0.2002 H   0  0  0  0  0  0  0  0  0  0  0  0
    2.6138   -4.2532    1.5665 H   0  0  0  0  0  0  0  0  0  0  0  0
    3.8705   -2.3353    0.6446 H   0  0  0  0  0  0  0  0  0  0  0  0
    2.4416   -1.7271    1.5295 H   0  0  0  0  0  0  0  0  0  0  0  0
    1.5247   -0.7286   -2.5773 H   0  0  0  0  0  0  0  0  0  0  0  0
    2.4361    0.7723   -2.2551 H   0  0  0  0  0  0  0  0  0  0  0  0
    1.0834    4.6828    0.0642 H   0  0  0  0  0  0  0  0  0  0  0  0
    0.6167    3.4147    1.2428 H   0  0  0  0  0  0  0  0  0  0  0  0
    3.4373    3.8926    0.1430 H   0  0  0  0  0  0  0  0  0  0  0  0
    2.8870    4.2764    1.7832 H   0  0  0  0  0  0  0  0  0  0  0  0
    2.9778    2.5899    1.2489 H   0  0  0  0  0  0  0  0  0  0  0  0
   -2.7208    2.4269    1.3888 H   0  0  0  0  0  0  0  0  0  0  0  0
   -2.0728    1.1281    2.4245 H   0  0  0  0  0  0  0  0  0  0  0  0
   -3.8408    1.2926    2.2087 H   0  0  0  0  0  0  0  0  0  0  0  0
   -1.8510   -2.9946   -1.4638 H   0  0  0  0  0  0  0  0  0  0  0  0
   -3.1789   -3.6118   -0.4349 H   0  0  0  0  0  0  0  0  0  0  0  0
   -1.5601   -3.3246    0.2692 H   0  0  0  0  0  0  0  0  0  0  0  0
  1  2  1  0  0  0  0
  2  3  1  0  0  0  0
  3  4  4  0  0  0  0
  4  5  2  0  0  0  0
  4  6  1  0  0  0  0
  6  7  1  0  0  0  0
  7  8  1  0  0  0  0
  7  9  1  0  0  0  0
  9 10  2  0  0  0  0
  9 11  4  0  0  0  0
 11 12  1  0  0  0  0
 12 13  1  0  0  0  0
  7 14  1  0  0  0  0
 14 15  1  0  0  0  0
 15 16  2  0  0  0  0
 15 17  1  0  0  0  0
 17 18  1  0  0  0  0
 15 19  1  0  0  0  0
 19 20  1  0  0  0  0
  1 21  1  0  0  0  0
  1 22  1  0  0  0  0
  1 23  1  0  0  0  0
  2 24  1  0  0  0  0
  2 25  1  0  0  0  0
  6 26  1  0  0  0  0
  6 27  1  0  0  0  0
 12 28  1  0  0  0  0
 12 29  1  0  0  0  0
 13 30  1  0  0  0  0
 13 31  1  0  0  0  0
 13 32  1  0  0  0  0
 18 33  1  0  0  0  0
 18 34  1  0  0  0  0
 18 35  1  0  0  0  0
 20 36  1  0  0  0  0
 20 37  1  0  0  0  0
 20 38  1  0  0  0  0
M  END
