 xtb: 6.7.1 (edcfbbe)
          04092507313D

 38 37  0     0  0            999 V2000
    3.2783   -4.4428   -0.6386 C   0  0  0  0  0  0  0  0  0  0  0  0
    3.9303   -3.2595   -1.3361 C   0  0  0  0  0  0  0  0  0  0  0  0
    3.5886   -2.0263   -0.6747 O   0  0  0  0  0  0  0  0  0  0  0  0
    2.4751   -1.4134   -1.0253 C   0  0  0  0  0  0  0  0  0  0  0  0
    1.7232   -1.7909   -1.8956 O   0  0  0  0  0  0  0  0  0  0  0  0
    2.2709   -0.1504   -0.2089 C   0  0  0  0  0  0  0  0  0  0  0  0
    0.8104    0.2665   -0.2427 C   0  0  0  0  0  0  0  0  0  0  0  0
    0.4463    0.2398   -1.2787 H   0  0  0  0  0  0  0  0  0  0  0  0
    0.5327    1.6516    0.3015 C   0  0  0  0  0  0  0  0  0  0  0  0
   -0.4819    1.8999    0.9244 O   0  0  0  0  0  0  0  0  0  0  0  0
    1.4560    2.5160   -0.0086 O   0  0  0  0  0  0  0  0  0  0  0  0
    1.2849    3.8887    0.4131 C   0  0  0  0  0  0  0  0  0  0  0  0
    1.7902    4.0846    1.8327 C   0  0  0  0  0  0  0  0  0  0  0  0
   -0.2226   -0.9067    0.7132 S   0  0  0  0  0  0  0  0  0  0  0  0
   -2.1109   -0.0387    0.3073 P   0  0  0  0  0  0  0  0  0  0  0  0
   -2.3215    1.0277   -1.3335 S   0  0  0  0  0  0  0  0  0  0  0  0
   -3.0092   -1.3681    0.2707 O   0  0  0  0  0  0  0  0  0  0  0  0
   -2.8773   -2.3112   -0.7942 C   0  0  0  0  0  0  0  0  0  0  0  0
   -2.7620    0.4910    1.6503 O   0  0  0  0  0  0  0  0  0  0  0  0
   -3.0914    1.8531    1.9340 C   0  0  0  0  0  0  0  0  0  0  0  0
    3.5699   -4.4680    0.4076 H   0  0  0  0  0  0  0  0  0  0  0  0
    2.1954   -4.3613   -0.7006 H   0  0  0  0  0  0  0  0  0  0  0  0
    3.5914   -5.3626   -1.1212 H   0  0  0  0  0  0  0  0  0  0  0  0
    3.6070   -3.1985   -2.3791 H   0  0  0  0  0  0  0  0  0  0  0  0
    5.0174   -3.3107   -1.2758 H   0  0  0  0  0  0  0  0  0  0  0  0
    2.8803    0.6430   -0.6474 H   0  0  0  0  0  0  0  0  0  0  0  0
    2.6101   -0.3319    0.8104 H   0  0  0  0  0  0  0  0  0  0  0  0
    1.8724    4.4616   -0.3038 H   0  0  0  0  0  0  0  0  0  0  0  0
    0.2261    4.1479    0.3326 H   0  0  0  0  0  0  0  0  0  0  0  0
    2.8337    3.7918    1.9041 H   0  0  0  0  0  0  0  0  0  0  0  0
    1.6931    5.1307    2.1032 H   0  0  0  0  0  0  0  0  0  0  0  0
    1.2049    3.4862    2.5269 H   0  0  0  0  0  0  0  0  0  0  0  0
   -1.8913   -2.7782   -0.7716 H   0  0  0  0  0  0  0  0  0  0  0  0
   -3.0247   -1.8141   -1.7551 H   0  0  0  0  0  0  0  0  0  0  0  0
   -3.6541   -3.0524   -0.6261 H   0  0  0  0  0  0  0  0  0  0  0  0
   -3.1453    2.4329    1.0111 H   0  0  0  0  0  0  0  0  0  0  0  0
   -2.3301    2.2736    2.5878 H   0  0  0  0  0  0  0  0  0  0  0  0
   -4.0612    1.8325    2.4264 H   0  0  0  0  0  0  0  0  0  0  0  0
  1  2  1  0  0  0  0
  2  3  1  0  0  0  0
  3  4  1  0  0  0  0
  4  5  2  0  0  0  0
  4  6  1  0  0  0  0
  6  7  1  0  0  0  0
  7  8  1  0  0  0  0
  7  9  1  0  0  0  0
  9 10  2  0  0  0  0
  9 11  4  0  0  0  0
 11 12  1  0  0  0  0
 12 13  1  0  0  0  0
  7 14  1  0  0  0  0
 14 15  1  0  0  0  0
 15 16  2  0  0  0  0
 15 17  1  0  0  0  0
 17 18  1  0  0  0  0
 15 19  2  0  0  0  0
 19 20  1  0  0  0  0
  1 21  1  0  0  0  0
  1 22  1  0  0  0  0
  1 23  1  0  0  0  0
  2 24  1  0  0  0  0
  2 25  1  0  0  0  0
  6 26  1  0  0  0  0
  6 27  1  0  0  0  0
 12 28  1  0  0  0  0
 12 29  1  0  0  0  0
 13 30  1  0  0  0  0
 13 31  1  0  0  0  0
 13 32  1  0  0  0  0
 18 33  1  0  0  0  0
 18 34  1  0  0  0  0
 18 35  1  0  0  0  0
 20 36  1  0  0  0  0
 20 37  1  0  0  0  0
 20 38  1  0  0  0  0
M  END
