 xtb: 6.7.1 (edcfbbe)
          04092507313D

 38 37  0     0  0            999 V2000
    3.2331   -2.9788    1.2900 C   0  0  0  0  0  0  0  0  0  0  0  0
    3.0322   -1.4745    1.2859 C   0  0  0  0  0  0  0  0  0  0  0  0
    2.6419   -1.0659   -0.0395 O   0  0  0  0  0  0  0  0  0  0  0  0
    1.6201   -0.2711   -0.2010 C   0  0  0  0  0  0  0  0  0  0  0  0
    0.9878    0.2598    0.6997 O   0  0  0  0  0  0  0  0  0  0  0  0
    1.3138   -0.0094   -1.6583 C   0  0  0  0  0  0  0  0  0  0  0  0
    0.1778    0.9972   -1.7610 C   0  0  0  0  0  0  0  0  0  0  0  0
    0.1368    1.4254   -2.7664 H   0  0  0  0  0  0  0  0  0  0  0  0
    0.3406    2.1392   -0.7637 C   0  0  0  0  0  0  0  0  0  0  0  0
   -0.5685    2.6018   -0.1141 O   0  0  0  0  0  0  0  0  0  0  0  0
    1.5695    2.6139   -0.7995 O   0  0  0  0  0  0  0  0  0  0  0  0
    1.9123    3.6988    0.0875 C   0  0  0  0  0  0  0  0  0  0  0  0
    2.5611    3.1637    1.3535 C   0  0  0  0  0  0  0  0  0  0  0  0
   -1.4870    0.2776   -1.5721 S   0  0  0  0  0  0  0  0  0  0  0  0
   -1.5489   -0.9128    0.1888 P   0  0  0  0  0  0  0  0  0  0  0  0
   -0.3914   -2.4865    0.3165 S   0  0  0  0  0  0  0  0  0  0  0  0
   -1.5982   -0.0523    1.5109 O   0  0  0  0  0  0  0  0  0  0  0  0
   -2.5504    1.0025    1.7472 C   0  0  0  0  0  0  0  0  0  0  0  0
   -3.0940   -1.3338    0.0803 O   0  0  0  0  0  0  0  0  0  0  0  0
   -3.5492   -2.2682   -0.9033 C   0  0  0  0  0  0  0  0  0  0  0  0
    3.9752   -3.2553    0.5478 H   0  0  0  0  0  0  0  0  0  0  0  0
    3.5670   -3.2931    2.2730 H   0  0  0  0  0  0  0  0  0  0  0  0
    2.2947   -3.4761    1.0544 H   0  0  0  0  0  0  0  0  0  0  0  0
    3.9615   -0.9470    1.5158 H   0  0  0  0  0  0  0  0  0  0  0  0
    2.2516   -1.1708    1.9896 H   0  0  0  0  0  0  0  0  0  0  0  0
    1.0577   -0.9520   -2.1457 H   0  0  0  0  0  0  0  0  0  0  0  0
    2.2148    0.3868   -2.1294 H   0  0  0  0  0  0  0  0  0  0  0  0
    2.6031    4.3176   -0.4860 H   0  0  0  0  0  0  0  0  0  0  0  0
    1.0011    4.2563    0.3208 H   0  0  0  0  0  0  0  0  0  0  0  0
    1.8888    2.4608    1.8430 H   0  0  0  0  0  0  0  0  0  0  0  0
    3.4878    2.6492    1.1141 H   0  0  0  0  0  0  0  0  0  0  0  0
    2.7699    3.9864    2.0291 H   0  0  0  0  0  0  0  0  0  0  0  0
   -3.5467    0.6851    1.4463 H   0  0  0  0  0  0  0  0  0  0  0  0
   -2.2454    1.8921    1.1966 H   0  0  0  0  0  0  0  0  0  0  0  0
   -2.5070    1.1832    2.8181 H   0  0  0  0  0  0  0  0  0  0  0  0
   -2.8663   -3.1179   -0.9550 H   0  0  0  0  0  0  0  0  0  0  0  0
   -3.6129   -1.7802   -1.8750 H   0  0  0  0  0  0  0  0  0  0  0  0
   -4.5316   -2.5909   -0.5682 H   0  0  0  0  0  0  0  0  0  0  0  0
  1  2  1  0  0  0  0
  2  3  1  0  0  0  0
  3  4  4  0  0  0  0
  4  5  2  0  0  0  0
  4  6  1  0  0  0  0
  6  7  1  0  0  0  0
  7  8  1  0  0  0  0
  7  9  1  0  0  0  0
  9 10  2  0  0  0  0
  9 11  1  0  0  0  0
 11 12  1  0  0  0  0
 12 13  1  0  0  0  0
  7 14  1  0  0  0  0
 14 15  1  0  0  0  0
 15 16  2  0  0  0  0
 15 17  2  0  0  0  0
 17 18  1  0  0  0  0
 15 19  1  0  0  0  0
 19 20  1  0  0  0  0
  1 21  1  0  0  0  0
  1 22  1  0  0  0  0
  1 23  1  0  0  0  0
  2 24  1  0  0  0  0
  2 25  1  0  0  0  0
  6 26  1  0  0  0  0
  6 27  1  0  0  0  0
 12 28  1  0  0  0  0
 12 29  1  0  0  0  0
 13 30  1  0  0  0  0
 13 31  1  0  0  0  0
 13 32  1  0  0  0  0
 18 33  1  0  0  0  0
 18 34  1  0  0  0  0
 18 35  1  0  0  0  0
 20 36  1  0  0  0  0
 20 37  1  0  0  0  0
 20 38  1  0  0  0  0
M  END
