 xtb: 6.7.1 (edcfbbe)
          04092505213D

 41 40  0     0  0            999 V2000
    5.4340   -1.3406    0.4703 C   0  0  0  0  0  0  0  0  0  0  0  0
    4.1287   -1.7910   -0.1524 C   0  0  0  0  0  0  0  0  0  0  0  0
    3.5765   -0.7646   -1.0154 O   0  0  0  0  0  0  0  0  0  0  0  0
    2.5567    0.3433   -0.5437 P   0  0  0  0  0  0  0  0  0  0  0  0
    2.0856    1.5266   -2.0275 S   0  0  0  0  0  0  0  0  0  0  0  0
    3.2942    1.0195    0.6907 O   0  0  0  0  0  0  0  0  0  0  0  0
    2.9200    2.3077    1.2107 C   0  0  0  0  0  0  0  0  0  0  0  0
    1.5713    2.2774    1.8996 C   0  0  0  0  0  0  0  0  0  0  0  0
    0.9726   -0.7687    0.3437 S   0  0  0  0  0  0  0  0  0  0  0  0
    0.0577   -1.0575   -1.2086 C   0  0  0  0  0  0  0  0  0  0  0  0
   -1.5884   -1.6961   -0.8839 S   0  0  0  0  0  0  0  0  0  0  0  0
   -2.5116    0.0814   -0.1206 P   0  0  0  0  0  0  0  0  0  0  0  0
   -1.5284    1.7396   -0.4718 S   0  0  0  0  0  0  0  0  0  0  0  0
   -2.8183   -0.2249    1.4088 O   0  0  0  0  0  0  0  0  0  0  0  0
   -1.8091   -0.1534    2.4348 C   0  0  0  0  0  0  0  0  0  0  0  0
   -2.5147   -0.1774    3.7753 C   0  0  0  0  0  0  0  0  0  0  0  0
   -3.9531    0.1168   -0.7460 O   0  0  0  0  0  0  0  0  0  0  0  0
   -5.0722   -0.7082   -0.3310 C   0  0  0  0  0  0  0  0  0  0  0  0
   -4.8095   -2.1850   -0.5303 C   0  0  0  0  0  0  0  0  0  0  0  0
    5.8611   -2.1665    1.0307 H   0  0  0  0  0  0  0  0  0  0  0  0
    6.1306   -1.0354   -0.3058 H   0  0  0  0  0  0  0  0  0  0  0  0
    5.2654   -0.5016    1.1395 H   0  0  0  0  0  0  0  0  0  0  0  0
    3.3896   -2.0423    0.6138 H   0  0  0  0  0  0  0  0  0  0  0  0
    4.2804   -2.6431   -0.8174 H   0  0  0  0  0  0  0  0  0  0  0  0
    3.7228    2.5477    1.9096 H   0  0  0  0  0  0  0  0  0  0  0  0
    2.9153    3.0273    0.3863 H   0  0  0  0  0  0  0  0  0  0  0  0
    1.4094    3.2203    2.4121 H   0  0  0  0  0  0  0  0  0  0  0  0
    0.7777    2.1446    1.1644 H   0  0  0  0  0  0  0  0  0  0  0  0
    1.5335    1.4623    2.6183 H   0  0  0  0  0  0  0  0  0  0  0  0
    0.5737   -1.8090   -1.8022 H   0  0  0  0  0  0  0  0  0  0  0  0
   -0.0090   -0.1064   -1.7435 H   0  0  0  0  0  0  0  0  0  0  0  0
   -1.1349   -1.0071    2.3188 H   0  0  0  0  0  0  0  0  0  0  0  0
   -1.2374    0.7696    2.2966 H   0  0  0  0  0  0  0  0  0  0  0  0
   -3.0921   -1.0915    3.8762 H   0  0  0  0  0  0  0  0  0  0  0  0
   -1.7736   -0.1318    4.5662 H   0  0  0  0  0  0  0  0  0  0  0  0
   -3.1829    0.6748    3.8609 H   0  0  0  0  0  0  0  0  0  0  0  0
   -5.2883   -0.4849    0.7149 H   0  0  0  0  0  0  0  0  0  0  0  0
   -5.8863   -0.3538   -0.9649 H   0  0  0  0  0  0  0  0  0  0  0  0
   -4.5347   -2.3873   -1.5623 H   0  0  0  0  0  0  0  0  0  0  0  0
   -3.9992   -2.5167    0.1163 H   0  0  0  0  0  0  0  0  0  0  0  0
   -5.7088   -2.7408   -0.2838 H   0  0  0  0  0  0  0  0  0  0  0  0
  1  2  1  0  0  0  0
  2  3  1  0  0  0  0
  3  4  2  0  0  0  0
  4  5  2  0  0  0  0
  4  6  2  0  0  0  0
  6  7  1  0  0  0  0
  7  8  1  0  0  0  0
  4  9  1  0  0  0  0
  9 10  1  0  0  0  0
 10 11  1  0  0  0  0
 11 12  1  0  0  0  0
 12 13  2  0  0  0  0
 12 14  2  0  0  0  0
 14 15  1  0  0  0  0
 15 16  1  0  0  0  0
 12 17  2  0  0  0  0
 17 18  1  0  0  0  0
 18 19  1  0  0  0  0
  1 20  1  0  0  0  0
  1 21  1  0  0  0  0
  1 22  1  0  0  0  0
  2 23  1  0  0  0  0
  2 24  1  0  0  0  0
  7 25  1  0  0  0  0
  7 26  1  0  0  0  0
  8 27  1  0  0  0  0
  8 28  1  0  0  0  0
  8 29  1  0  0  0  0
 10 30  1  0  0  0  0
 10 31  1  0  0  0  0
 15 32  1  0  0  0  0
 15 33  1  0  0  0  0
 16 34  1  0  0  0  0
 16 35  1  0  0  0  0
 16 36  1  0  0  0  0
 18 37  1  0  0  0  0
 18 38  1  0  0  0  0
 19 39  1  0  0  0  0
 19 40  1  0  0  0  0
 19 41  1  0  0  0  0
M  END
