11
 xtb: 6.7.1 (edcfbbe)
C            1.64500349593898        1.19479035890630        0.00005945186251
C            0.25579894253826        1.23523800984794       -0.00001034838550
C           -0.41432082930837        0.02117814614181       -0.00007355683272
C            0.29209337026219       -1.17587351798553       -0.00005608438717
N            1.62941790391390       -1.20925135205691        0.00001566318623
C            2.28392418588151       -0.03874362241751        0.00006286883717
Cl          -2.16924857974007       -0.02000520388547       -0.00017974504948
H            2.22200474395492        2.11313118212165        0.00011268683212
H           -0.28302443331697        2.17605043150452       -0.00001437243608
H           -0.23298006196672       -2.12745073709039       -0.00011934262006
H            3.36949390719489       -0.09204599946985        0.00013999622752
