 xtb: 6.7.1 (edcfbbe)
          04092507313D

 38 37  0     0  0            999 V2000
    4.1432   -2.7250    1.3137 C   0  0  0  0  0  0  0  0  0  0  0  0
    4.3722   -2.1700   -0.0828 C   0  0  0  0  0  0  0  0  0  0  0  0
    3.1208   -2.0410   -0.7882 O   0  0  0  0  0  0  0  0  0  0  0  0
    2.4358   -0.9287   -0.6583 C   0  0  0  0  0  0  0  0  0  0  0  0
    2.8073    0.0475   -0.0356 O   0  0  0  0  0  0  0  0  0  0  0  0
    1.1034   -1.0033   -1.3655 C   0  0  0  0  0  0  0  0  0  0  0  0
    0.5029    0.3898   -1.5053 C   0  0  0  0  0  0  0  0  0  0  0  0
    0.8902    0.9176   -2.3776 H   0  0  0  0  0  0  0  0  0  0  0  0
    0.7202    1.2449   -0.2714 C   0  0  0  0  0  0  0  0  0  0  0  0
    0.2446    0.9503    0.8099 O   0  0  0  0  0  0  0  0  0  0  0  0
    1.3300    2.3661   -0.5475 O   0  0  0  0  0  0  0  0  0  0  0  0
    1.5111    3.3213    0.5191 C   0  0  0  0  0  0  0  0  0  0  0  0
    0.2756    4.1950    0.6674 C   0  0  0  0  0  0  0  0  0  0  0  0
   -1.3109    0.3401   -1.7189 S   0  0  0  0  0  0  0  0  0  0  0  0
   -2.0069   -0.2427    0.1892 P   0  0  0  0  0  0  0  0  0  0  0  0
   -1.2129   -1.7360    1.1991 S   0  0  0  0  0  0  0  0  0  0  0  0
   -2.3589    1.1175    0.9392 O   0  0  0  0  0  0  0  0  0  0  0  0
   -2.3293    1.2214    2.3697 C   0  0  0  0  0  0  0  0  0  0  0  0
   -3.5120   -0.6100   -0.2398 O   0  0  0  0  0  0  0  0  0  0  0  0
   -3.8305   -1.8372   -0.9021 C   0  0  0  0  0  0  0  0  0  0  0  0
    3.6332   -3.6827    1.2572 H   0  0  0  0  0  0  0  0  0  0  0  0
    5.0981   -2.8541    1.8121 H   0  0  0  0  0  0  0  0  0  0  0  0
    3.5306   -2.0375    1.8939 H   0  0  0  0  0  0  0  0  0  0  0  0
    4.9594   -2.8559   -0.6932 H   0  0  0  0  0  0  0  0  0  0  0  0
    4.8509   -1.1877   -0.0386 H   0  0  0  0  0  0  0  0  0  0  0  0
    0.4676   -1.6344   -0.7327 H   0  0  0  0  0  0  0  0  0  0  0  0
    1.2071   -1.4939   -2.3316 H   0  0  0  0  0  0  0  0  0  0  0  0
    1.7227    2.7718    1.4402 H   0  0  0  0  0  0  0  0  0  0  0  0
    2.3818    3.9020    0.2160 H   0  0  0  0  0  0  0  0  0  0  0  0
   -0.5882    3.5813    0.9159 H   0  0  0  0  0  0  0  0  0  0  0  0
    0.4381    4.9151    1.4623 H   0  0  0  0  0  0  0  0  0  0  0  0
    0.0761    4.7213   -0.2618 H   0  0  0  0  0  0  0  0  0  0  0  0
   -1.3297    0.9833    2.7345 H   0  0  0  0  0  0  0  0  0  0  0  0
   -3.0581    0.5443    2.8138 H   0  0  0  0  0  0  0  0  0  0  0  0
   -2.5833    2.2556    2.5882 H   0  0  0  0  0  0  0  0  0  0  0  0
   -4.9079   -1.9490   -0.8121 H   0  0  0  0  0  0  0  0  0  0  0  0
   -3.3183   -2.6681   -0.4127 H   0  0  0  0  0  0  0  0  0  0  0  0
   -3.5364   -1.7814   -1.9497 H   0  0  0  0  0  0  0  0  0  0  0  0
  1  2  1  0  0  0  0
  2  3  1  0  0  0  0
  3  4  4  0  0  0  0
  4  5  2  0  0  0  0
  4  6  1  0  0  0  0
  6  7  1  0  0  0  0
  7  8  1  0  0  0  0
  7  9  1  0  0  0  0
  9 10  2  0  0  0  0
  9 11  4  0  0  0  0
 11 12  1  0  0  0  0
 12 13  1  0  0  0  0
  7 14  1  0  0  0  0
 14 15  1  0  0  0  0
 15 16  2  0  0  0  0
 15 17  1  0  0  0  0
 17 18  1  0  0  0  0
 15 19  1  0  0  0  0
 19 20  1  0  0  0  0
  1 21  1  0  0  0  0
  1 22  1  0  0  0  0
  1 23  1  0  0  0  0
  2 24  1  0  0  0  0
  2 25  1  0  0  0  0
  6 26  1  0  0  0  0
  6 27  1  0  0  0  0
 12 28  1  0  0  0  0
 12 29  1  0  0  0  0
 13 30  1  0  0  0  0
 13 31  1  0  0  0  0
 13 32  1  0  0  0  0
 18 33  1  0  0  0  0
 18 34  1  0  0  0  0
 18 35  1  0  0  0  0
 20 36  1  0  0  0  0
 20 37  1  0  0  0  0
 20 38  1  0  0  0  0
M  END
