41
 xtb: 6.7.1 (edcfbbe)
C            1.52912060204974        0.69215442658232        3.10677533580220
C            1.25712760284217       -0.46415466257851        2.18064416182334
O            2.18929310887003       -0.34704935554116        1.05082353470489
P            2.20074657324289       -1.47188463826434       -0.10396558884751
S            2.30377299040683       -3.32810428139892        0.47476821116106
O            3.37015553026797       -0.90381885294442       -1.04371191581939
C            4.78338568135027       -1.26583511846277       -0.82981881033508
C            5.36824291511598       -0.58778879325416        0.38386192387515
S            0.47245932025430       -1.19553788333005       -1.27300401437984
C            0.52852090985421        0.61050246704211       -1.65077098694851
S           -0.18461523554338        1.74717918772850       -0.39626803897764
P           -2.18226241137205        1.03699464230817       -0.34438366775577
S           -2.91878387257298        0.44521991779059       -2.04690553525426
O           -2.92398117210997        2.25710921137588        0.40080734886704
C           -3.28246415372191        3.47901381968953       -0.33587221635122
C           -4.09020937900313        4.34084681003557        0.59869595462265
O           -2.13843996817341       -0.03060698775351        0.85031774581972
C           -2.97501148526714       -1.23898367285059        0.87672595552950
C           -2.39824178124322       -2.14964100458255        1.92931005723586
H            2.55614721988190        0.66038636082518        3.48171018533921
H            1.36139899362961        1.64774747182426        2.60201033928396
H            0.84718290692474        0.62789625180065        3.96027140067627
H            0.23619816249516       -0.43545540093545        1.78705401906623
H            1.43211338106861       -1.42719284001586        2.67089637571260
H            4.84888177254723       -2.35627857281909       -0.76464266830753
H            5.26789420652091       -0.93403429919307       -1.74978932514810
H            5.23074077446001        0.49606155201189        0.33230814402572
H            4.92555559233969       -0.96138622655806        1.31154501941597
H            6.44255880576447       -0.79837574737056        0.41136411642855
H           -0.01767818623397        0.72816996706283       -2.59038305074961
H            1.56241310028265        0.93429062029587       -1.79683114689093
H           -2.35782020105114        3.97483850787509       -0.64927587377414
H           -3.85658361666149        3.18993405866883       -1.22135740106637
H           -5.00576223262098        3.82895122236993        0.90823161806501
H           -3.51096852973279        4.60898519971835        1.48669066201973
H           -4.36860058143289        5.26147697833345        0.07688107927916
H           -4.00006841494166       -0.93533852426886        1.11002567283615
H           -2.95076528917262       -1.69975970148486       -0.11459908589770
H           -2.39239845182547       -1.66643983130142        2.91053282428190
H           -3.01626943311711       -3.05075409525855        1.99158423905553
H           -1.37749535213526       -2.44761992909579        1.67079698089219
