  31
 
 C         -3.4975208810       -0.2163986414        1.9153677339
 C         -3.1631967246        0.3641986910        0.5399861482
 H         -3.6557534522        1.3342813038        0.4273925418
 C         -1.6662382039        0.5465240581        0.3731045638
 C         -1.1231464718        1.8437852562        0.2834857074
 C          0.2228473355        2.0326488062        0.1531371086
 C          1.1065647347        0.9329783581        0.1021485455
 C          2.4945574116        1.0928561203       -0.0347244790
 C          3.3347569896        0.0016479047       -0.0788354800
 C          2.7957443153       -1.2976349177        0.0154443582
 C          1.4463492894       -1.4735596491        0.1465181912
 C          0.5642415619       -0.3765954968        0.1931314931
 C         -0.8285907498       -0.5378441036        0.3266200834
 O          4.6659355821        0.2700109415       -0.2140550297
 C          5.5815382387       -0.8070348294       -0.2785462023
 C         -3.6185804450       -0.5697117744       -0.5667522718
 O         -3.7000184208       -1.7694203933       -0.4432858102
 O         -3.8918215171       -0.0067296384       -1.7427560019
 H         -3.1040607753       -1.2256560728        1.9993092428
 H         -3.0602243370        0.4008724124        2.6948954427
 H         -4.5749881132       -0.2586023873        2.0537027899
 H         -1.7834359604        2.6970700222        0.3304968597
 H          0.6320879002        3.0294532781        0.0877689760
 H          2.9205991393        2.0815065500       -0.1073296258
 H          3.4427047260       -2.1593288011       -0.0148071403
 H          1.0373071044       -2.4707447440        0.2168679836
 H         -1.2326245617       -1.5389677589        0.3824007211
 H          6.5576563982       -0.3426151681       -0.3993297547
 H          5.3749681157       -1.4526044139       -1.1360633069
 H          5.5676805444       -1.3951775676        0.6427721945
 H         -3.8127074490        0.9640766508       -1.7519699041
          31
        -49.33976552
 C         -3.5432352058       -0.4502981286       -1.8384380508
 C         -3.0469742634       -0.6409700488       -0.4041488826
 H         -3.1749379706       -1.6888739489       -0.1150718362
 C         -1.5821537998       -0.2703627385       -0.2894752680
 C         -1.1975730955        1.0803566870       -0.3943839844
 C          0.1184991800        1.4395242930       -0.3233330721
 C          1.1267698194        0.4684861261       -0.1477577761
 C          2.4909950314        0.8191549000       -0.0771296262
 C          3.4480727456       -0.1500519044        0.0929294147
 C          3.0645846445       -1.5081518882        0.1991608941
 C          1.7527480365       -1.8663775781        0.1335830830
 C          0.7444469133       -0.8925815964       -0.0418875895
 C         -0.6201694370       -1.2318425901       -0.1134642854
 O          4.7906857928        0.0694510924        0.1736665082
 C          5.2660976787        1.3974615333        0.0711024660
 C         -3.8300217665        0.2317576820        0.5607462210
 O         -4.5026667590        1.1782511869        0.2259400436
 O         -3.7188260187       -0.0781001209        1.8520378782
 H         -3.4804110657        0.5970585233       -2.1209879294
 H         -2.9366358276       -1.0385409497       -2.5209179782
 H         -4.5816158767       -0.7607458178       -1.9207495474
 H         -1.9616441389        1.8331995137       -0.5257573663
 H          0.4028412993        2.4784430613       -0.4026476258
 H          2.7507319499        1.8625189272       -0.1612837459
 H          3.8476087569       -2.2376735994        0.3322788630
 H          1.4678493007       -2.9043711308        0.2142634199
 H         -0.8934202996       -2.2744727711       -0.0372951455
 H          4.8732746041        2.0199144014        0.8792142354
 H          5.0031491215        1.8359117923       -0.8950836670
 H          6.3475930508        1.3233541422        0.1580142341
 H         -3.1602629045       -0.8560970893        2.0295026501
          31
        -49.34837824
 C         -3.6062711920       -0.0247748303       -1.8847637185
 C         -3.0563542738       -0.5209097317       -0.5476289827
 H         -3.1786509226       -1.6032123325       -0.4601815735
 C         -1.5879208371       -0.1817605153       -0.3881117724
 C         -1.1801587387        1.1654001776       -0.3523450036
 C          0.1399655677        1.4934915692       -0.2256819368
 C          1.1294857090        0.4930779360       -0.1275796917
 C          2.4976917487        0.8114463774       -0.0003468728
 C          3.4355423582       -0.1857983661        0.0975422628
 C          3.0282914311       -1.5407040908        0.0713695725
 C          1.7122803550       -1.8678592278       -0.0512326396
 C          0.7227721404       -0.8648351777       -0.1546416945
 C         -0.6454875154       -1.1717322231       -0.2819383794
 O          4.7801795708        0.0023853310        0.2232644908
 C          5.2765630926        1.3264057355        0.2543676680
 C         -3.7749884430        0.1205379512        0.6189503277
 O         -4.2260144515        1.2450793599        0.6301969297
 O         -3.8255344948       -0.6808881131        1.6713263582
 H         -3.6091528002        1.0615870538       -1.9097544550
 H         -2.9889096336       -0.3971759905       -2.6971215304
 H         -4.6266233021       -0.3728844274       -2.0237660523
 H         -1.9294194974        1.9411185698       -0.4125770610
 H          0.4419140510        2.5302052166       -0.1974764326
 H          2.7753570591        1.8534989262        0.0166926833
 H          3.7961972656       -2.2937512392        0.1515374323
 H          1.4084394031       -2.9034731303       -0.0707611944
 H         -0.9410998019       -2.2106568720       -0.2990246016
 H          4.8740041031        1.8778361048        1.1080771429
 H          5.0418521115        1.8564521468       -0.6724167578
 H          6.3546197932        1.2269398043        0.3572225167
 H         -4.2455892140       -0.2629657728        2.4484656447
