 xtb: 6.7.1 (edcfbbe)
          04092505213D

 41 40  0     0  0            999 V2000
    2.8608   -1.3536    3.2894 C   0  0  0  0  0  0  0  0  0  0  0  0
    1.7278   -0.9893    2.3520 C   0  0  0  0  0  0  0  0  0  0  0  0
    2.0461   -1.3820    0.9938 O   0  0  0  0  0  0  0  0  0  0  0  0
    2.5827   -0.3859   -0.1022 P   0  0  0  0  0  0  0  0  0  0  0  0
    2.9782   -1.3869   -1.7368 S   0  0  0  0  0  0  0  0  0  0  0  0
    3.7690    0.3466    0.6568 O   0  0  0  0  0  0  0  0  0  0  0  0
    4.3586    1.5997    0.2613 C   0  0  0  0  0  0  0  0  0  0  0  0
    4.8440    1.5927   -1.1728 C   0  0  0  0  0  0  0  0  0  0  0  0
    1.1192    1.1607   -0.3007 S   0  0  0  0  0  0  0  0  0  0  0  0
    0.0611    0.2662   -1.4558 C   0  0  0  0  0  0  0  0  0  0  0  0
   -0.9816   -0.9655   -0.6397 S   0  0  0  0  0  0  0  0  0  0  0  0
   -2.7622    0.2201   -0.4113 P   0  0  0  0  0  0  0  0  0  0  0  0
   -2.8592    1.8379   -1.5045 S   0  0  0  0  0  0  0  0  0  0  0  0
   -2.9297    0.3669    1.1661 O   0  0  0  0  0  0  0  0  0  0  0  0
   -1.9313    0.9025    2.0513 C   0  0  0  0  0  0  0  0  0  0  0  0
   -1.6982    2.3851    1.8436 C   0  0  0  0  0  0  0  0  0  0  0  0
   -3.9426   -0.7510   -0.7764 O   0  0  0  0  0  0  0  0  0  0  0  0
   -4.1436   -2.0451   -0.1534 C   0  0  0  0  0  0  0  0  0  0  0  0
   -5.1740   -1.9521    0.9532 C   0  0  0  0  0  0  0  0  0  0  0  0
    3.0669   -2.4184    3.2264 H   0  0  0  0  0  0  0  0  0  0  0  0
    3.7613   -0.8079    3.0206 H   0  0  0  0  0  0  0  0  0  0  0  0
    2.5767   -1.1018    4.3063 H   0  0  0  0  0  0  0  0  0  0  0  0
    1.5274    0.0858    2.3747 H   0  0  0  0  0  0  0  0  0  0  0  0
    0.8197   -1.5461    2.5921 H   0  0  0  0  0  0  0  0  0  0  0  0
    3.6173    2.3888    0.4146 H   0  0  0  0  0  0  0  0  0  0  0  0
    5.1869    1.7260    0.9606 H   0  0  0  0  0  0  0  0  0  0  0  0
    5.3548    2.5261   -1.3862 H   0  0  0  0  0  0  0  0  0  0  0  0
    5.5258    0.7620   -1.3394 H   0  0  0  0  0  0  0  0  0  0  0  0
    4.0019    1.4859   -1.8555 H   0  0  0  0  0  0  0  0  0  0  0  0
    0.6933   -0.2648   -2.1695 H   0  0  0  0  0  0  0  0  0  0  0  0
   -0.5777    1.0013   -1.9510 H   0  0  0  0  0  0  0  0  0  0  0  0
   -2.3329    0.6996    3.0456 H   0  0  0  0  0  0  0  0  0  0  0  0
   -1.0032    0.3408    1.9070 H   0  0  0  0  0  0  0  0  0  0  0  0
   -1.2416    2.5691    0.8724 H   0  0  0  0  0  0  0  0  0  0  0  0
   -2.6412    2.9236    1.8891 H   0  0  0  0  0  0  0  0  0  0  0  0
   -1.0344    2.7555    2.6180 H   0  0  0  0  0  0  0  0  0  0  0  0
   -4.4888   -2.6875   -0.9655 H   0  0  0  0  0  0  0  0  0  0  0  0
   -3.1841   -2.4126    0.2207 H   0  0  0  0  0  0  0  0  0  0  0  0
   -6.1060   -1.5572    0.5584 H   0  0  0  0  0  0  0  0  0  0  0  0
   -5.3482   -2.9432    1.3603 H   0  0  0  0  0  0  0  0  0  0  0  0
   -4.8230   -1.2938    1.7430 H   0  0  0  0  0  0  0  0  0  0  0  0
  1  2  1  0  0  0  0
  2  3  1  0  0  0  0
  3  4  2  0  0  0  0
  4  5  2  0  0  0  0
  4  6  2  0  0  0  0
  6  7  1  0  0  0  0
  7  8  1  0  0  0  0
  4  9  1  0  0  0  0
  9 10  1  0  0  0  0
 10 11  1  0  0  0  0
 11 12  1  0  0  0  0
 12 13  2  0  0  0  0
 12 14  2  0  0  0  0
 14 15  1  0  0  0  0
 15 16  1  0  0  0  0
 12 17  2  0  0  0  0
 17 18  1  0  0  0  0
 18 19  1  0  0  0  0
  1 20  1  0  0  0  0
  1 21  1  0  0  0  0
  1 22  1  0  0  0  0
  2 23  1  0  0  0  0
  2 24  1  0  0  0  0
  7 25  1  0  0  0  0
  7 26  1  0  0  0  0
  8 27  1  0  0  0  0
  8 28  1  0  0  0  0
  8 29  1  0  0  0  0
 10 30  1  0  0  0  0
 10 31  1  0  0  0  0
 15 32  1  0  0  0  0
 15 33  1  0  0  0  0
 16 34  1  0  0  0  0
 16 35  1  0  0  0  0
 16 36  1  0  0  0  0
 18 37  1  0  0  0  0
 18 38  1  0  0  0  0
 19 39  1  0  0  0  0
 19 40  1  0  0  0  0
 19 41  1  0  0  0  0
M  END
