 xtb: 6.7.1 (edcfbbe)
          04092514003D

 41 40  0     0  0            999 V2000
    5.8404   -0.3284    0.4705 C   0  0  0  0  0  0  0  0  0  0  0  0
    4.5516   -0.7050   -0.2344 C   0  0  0  0  0  0  0  0  0  0  0  0
    3.4719    0.0260    0.3846 O   0  0  0  0  0  0  0  0  0  0  0  0
    2.0499    0.1972   -0.3049 P   0  0  0  0  0  0  0  0  0  0  0  0
    2.0916    0.7571   -2.1877 S   0  0  0  0  0  0  0  0  0  0  0  0
    1.3225    1.1652    0.7118 O   0  0  0  0  0  0  0  0  0  0  0  0
    1.2957    2.5931    0.5277 C   0  0  0  0  0  0  0  0  0  0  0  0
    2.6446    3.2220    0.8036 C   0  0  0  0  0  0  0  0  0  0  0  0
    1.1212   -1.6459    0.1064 S   0  0  0  0  0  0  0  0  0  0  0  0
   -0.1594   -1.6859   -1.2005 C   0  0  0  0  0  0  0  0  0  0  0  0
   -1.8201   -1.9547   -0.5472 S   0  0  0  0  0  0  0  0  0  0  0  0
   -2.2384    0.0319    0.0891 P   0  0  0  0  0  0  0  0  0  0  0  0
   -1.7471    1.4378   -1.1797 S   0  0  0  0  0  0  0  0  0  0  0  0
   -1.5089    0.2202    1.4724 O   0  0  0  0  0  0  0  0  0  0  0  0
   -1.7677   -0.6255    2.6246 C   0  0  0  0  0  0  0  0  0  0  0  0
   -0.5672   -0.5324    3.5424 C   0  0  0  0  0  0  0  0  0  0  0  0
   -3.7641   -0.0313    0.5325 O   0  0  0  0  0  0  0  0  0  0  0  0
   -4.8833    0.1515   -0.3562 C   0  0  0  0  0  0  0  0  0  0  0  0
   -5.3199   -1.1458   -1.0079 C   0  0  0  0  0  0  0  0  0  0  0  0
    6.0361    0.7343    0.3586 H   0  0  0  0  0  0  0  0  0  0  0  0
    5.7683   -0.5639    1.5282 H   0  0  0  0  0  0  0  0  0  0  0  0
    6.6603   -0.8892    0.0332 H   0  0  0  0  0  0  0  0  0  0  0  0
    4.3437   -1.7737   -0.1338 H   0  0  0  0  0  0  0  0  0  0  0  0
    4.5839   -0.4450   -1.2977 H   0  0  0  0  0  0  0  0  0  0  0  0
    0.9638    2.8064   -0.4945 H   0  0  0  0  0  0  0  0  0  0  0  0
    0.5324    2.9324    1.2297 H   0  0  0  0  0  0  0  0  0  0  0  0
    3.3677    2.8876    0.0608 H   0  0  0  0  0  0  0  0  0  0  0  0
    2.5527    4.3023    0.7452 H   0  0  0  0  0  0  0  0  0  0  0  0
    2.9961    2.9392    1.7923 H   0  0  0  0  0  0  0  0  0  0  0  0
    0.0508   -2.5322   -1.8496 H   0  0  0  0  0  0  0  0  0  0  0  0
   -0.1259   -0.7461   -1.7583 H   0  0  0  0  0  0  0  0  0  0  0  0
   -2.6760   -0.2574    3.1054 H   0  0  0  0  0  0  0  0  0  0  0  0
   -1.9307   -1.6500    2.2777 H   0  0  0  0  0  0  0  0  0  0  0  0
   -0.4126    0.4975    3.8518 H   0  0  0  0  0  0  0  0  0  0  0  0
   -0.7387   -1.1506    4.4175 H   0  0  0  0  0  0  0  0  0  0  0  0
    0.3255   -0.8781    3.0267 H   0  0  0  0  0  0  0  0  0  0  0  0
   -5.6687    0.5481    0.2904 H   0  0  0  0  0  0  0  0  0  0  0  0
   -4.6141    0.9006   -1.1074 H   0  0  0  0  0  0  0  0  0  0  0  0
   -4.5465   -1.5230   -1.6729 H   0  0  0  0  0  0  0  0  0  0  0  0
   -5.5299   -1.8973   -0.2520 H   0  0  0  0  0  0  0  0  0  0  0  0
   -6.2211   -0.9589   -1.5844 H   0  0  0  0  0  0  0  0  0  0  0  0
  1  2  1  0  0  0  0
  2  3  1  0  0  0  0
  3  4  2  0  0  0  0
  4  5  2  0  0  0  0
  4  6  2  0  0  0  0
  6  7  1  0  0  0  0
  7  8  1  0  0  0  0
  4  9  1  0  0  0  0
  9 10  1  0  0  0  0
 10 11  1  0  0  0  0
 11 12  1  0  0  0  0
 12 13  2  0  0  0  0
 12 14  2  0  0  0  0
 14 15  1  0  0  0  0
 15 16  1  0  0  0  0
 12 17  2  0  0  0  0
 17 18  1  0  0  0  0
 18 19  1  0  0  0  0
  1 20  1  0  0  0  0
  1 21  1  0  0  0  0
  1 22  1  0  0  0  0
  2 23  1  0  0  0  0
  2 24  1  0  0  0  0
  7 25  1  0  0  0  0
  7 26  1  0  0  0  0
  8 27  1  0  0  0  0
  8 28  1  0  0  0  0
  8 29  1  0  0  0  0
 10 30  1  0  0  0  0
 10 31  1  0  0  0  0
 15 32  1  0  0  0  0
 15 33  1  0  0  0  0
 16 34  1  0  0  0  0
 16 35  1  0  0  0  0
 16 36  1  0  0  0  0
 18 37  1  0  0  0  0
 18 38  1  0  0  0  0
 19 39  1  0  0  0  0
 19 40  1  0  0  0  0
 19 41  1  0  0  0  0
M  END
