 xtb: 6.7.1 (edcfbbe)
          04092505213D

 41 40  0     0  0            999 V2000
    3.2206   -1.6012   -2.9315 C   0  0  0  0  0  0  0  0  0  0  0  0
    4.0982   -0.8548   -1.9469 C   0  0  0  0  0  0  0  0  0  0  0  0
    3.5315   -0.8481   -0.6290 O   0  0  0  0  0  0  0  0  0  0  0  0
    2.1996   -0.0364   -0.2887 P   0  0  0  0  0  0  0  0  0  0  0  0
    2.1462    1.7136   -1.1757 S   0  0  0  0  0  0  0  0  0  0  0  0
    2.2296   -0.0785    1.2934 O   0  0  0  0  0  0  0  0  0  0  0  0
    2.7283    1.0316    2.0647 C   0  0  0  0  0  0  0  0  0  0  0  0
    4.2261    1.1870    1.9143 C   0  0  0  0  0  0  0  0  0  0  0  0
    0.6586   -1.4399   -0.6960 S   0  0  0  0  0  0  0  0  0  0  0  0
   -0.1475   -1.7540    0.9178 C   0  0  0  0  0  0  0  0  0  0  0  0
   -1.9451   -1.7293    0.7918 S   0  0  0  0  0  0  0  0  0  0  0  0
   -2.2616    0.3725    0.6045 P   0  0  0  0  0  0  0  0  0  0  0  0
   -0.7015    1.4654    1.0776 S   0  0  0  0  0  0  0  0  0  0  0  0
   -3.4597    0.7605    1.5454 O   0  0  0  0  0  0  0  0  0  0  0  0
   -4.8557    0.4445    1.3143 C   0  0  0  0  0  0  0  0  0  0  0  0
   -5.1221   -1.0454    1.3214 C   0  0  0  0  0  0  0  0  0  0  0  0
   -2.9250    0.5641   -0.8300 O   0  0  0  0  0  0  0  0  0  0  0  0
   -2.3494    0.1601   -2.0840 C   0  0  0  0  0  0  0  0  0  0  0  0
   -1.4246    1.2222   -2.6428 C   0  0  0  0  0  0  0  0  0  0  0  0
    3.7070   -1.6303   -3.9010 H   0  0  0  0  0  0  0  0  0  0  0  0
    3.0366   -2.6147   -2.5853 H   0  0  0  0  0  0  0  0  0  0  0  0
    2.2633   -1.0870   -3.0290 H   0  0  0  0  0  0  0  0  0  0  0  0
    4.2368    0.1831   -2.2683 H   0  0  0  0  0  0  0  0  0  0  0  0
    5.0674   -1.3381   -1.8179 H   0  0  0  0  0  0  0  0  0  0  0  0
    2.2005    1.9374    1.7474 H   0  0  0  0  0  0  0  0  0  0  0  0
    2.4431    0.7876    3.0891 H   0  0  0  0  0  0  0  0  0  0  0  0
    4.4669    1.4608    0.8878 H   0  0  0  0  0  0  0  0  0  0  0  0
    4.5740    1.9708    2.5797 H   0  0  0  0  0  0  0  0  0  0  0  0
    4.7253    0.2527    2.1571 H   0  0  0  0  0  0  0  0  0  0  0  0
    0.1774   -0.9926    1.6241 H   0  0  0  0  0  0  0  0  0  0  0  0
    0.1242   -2.7544    1.2424 H   0  0  0  0  0  0  0  0  0  0  0  0
   -5.3609    0.9474    2.1404 H   0  0  0  0  0  0  0  0  0  0  0  0
   -5.1546    0.8947    0.3663 H   0  0  0  0  0  0  0  0  0  0  0  0
   -4.6259   -1.5265    0.4802 H   0  0  0  0  0  0  0  0  0  0  0  0
   -4.7565   -1.4922    2.2421 H   0  0  0  0  0  0  0  0  0  0  0  0
   -6.1918   -1.2130    1.2424 H   0  0  0  0  0  0  0  0  0  0  0  0
   -1.8204   -0.7894   -1.9526 H   0  0  0  0  0  0  0  0  0  0  0  0
   -3.2130    0.0116   -2.7353 H   0  0  0  0  0  0  0  0  0  0  0  0
   -1.9491    2.1689   -2.7394 H   0  0  0  0  0  0  0  0  0  0  0  0
   -0.5678    1.3744   -1.9885 H   0  0  0  0  0  0  0  0  0  0  0  0
   -1.0635    0.9096   -3.6171 H   0  0  0  0  0  0  0  0  0  0  0  0
  1  2  1  0  0  0  0
  2  3  1  0  0  0  0
  3  4  2  0  0  0  0
  4  5  2  0  0  0  0
  4  6  2  0  0  0  0
  6  7  1  0  0  0  0
  7  8  1  0  0  0  0
  4  9  1  0  0  0  0
  9 10  1  0  0  0  0
 10 11  1  0  0  0  0
 11 12  1  0  0  0  0
 12 13  2  0  0  0  0
 12 14  2  0  0  0  0
 14 15  1  0  0  0  0
 15 16  1  0  0  0  0
 12 17  2  0  0  0  0
 17 18  1  0  0  0  0
 18 19  1  0  0  0  0
  1 20  1  0  0  0  0
  1 21  1  0  0  0  0
  1 22  1  0  0  0  0
  2 23  1  0  0  0  0
  2 24  1  0  0  0  0
  7 25  1  0  0  0  0
  7 26  1  0  0  0  0
  8 27  1  0  0  0  0
  8 28  1  0  0  0  0
  8 29  1  0  0  0  0
 10 30  1  0  0  0  0
 10 31  1  0  0  0  0
 15 32  1  0  0  0  0
 15 33  1  0  0  0  0
 16 34  1  0  0  0  0
 16 35  1  0  0  0  0
 16 36  1  0  0  0  0
 18 37  1  0  0  0  0
 18 38  1  0  0  0  0
 19 39  1  0  0  0  0
 19 40  1  0  0  0  0
 19 41  1  0  0  0  0
M  END
