 xtb: 6.7.1 (edcfbbe)
          04092505203D

 41 40  0     0  0            999 V2000
    1.8337   -3.7949   -0.2156 C   0  0  0  0  0  0  0  0  0  0  0  0
    1.3466   -2.4201    0.1971 C   0  0  0  0  0  0  0  0  0  0  0  0
    2.4345   -1.4962    0.0377 O   0  0  0  0  0  0  0  0  0  0  0  0
    2.2761    0.0352   -0.3694 P   0  0  0  0  0  0  0  0  0  0  0  0
    0.9670    0.3639   -1.7894 S   0  0  0  0  0  0  0  0  0  0  0  0
    3.7285    0.4123   -0.8283 O   0  0  0  0  0  0  0  0  0  0  0  0
    4.8622    0.6870    0.0336 C   0  0  0  0  0  0  0  0  0  0  0  0
    5.1747   -0.4582    0.9710 C   0  0  0  0  0  0  0  0  0  0  0  0
    1.9885    1.1245    1.4416 S   0  0  0  0  0  0  0  0  0  0  0  0
    0.2265    1.4692    1.3165 C   0  0  0  0  0  0  0  0  0  0  0  0
   -0.8002   -0.0270    1.5675 S   0  0  0  0  0  0  0  0  0  0  0  0
   -2.1753    0.1869   -0.0189 P   0  0  0  0  0  0  0  0  0  0  0  0
   -2.2660    1.9258   -0.9269 S   0  0  0  0  0  0  0  0  0  0  0  0
   -3.5545   -0.2934    0.6134 O   0  0  0  0  0  0  0  0  0  0  0  0
   -4.4772    0.6108    1.2431 C   0  0  0  0  0  0  0  0  0  0  0  0
   -3.9147    1.2151    2.5138 C   0  0  0  0  0  0  0  0  0  0  0  0
   -1.7945   -1.0904   -0.8752 O   0  0  0  0  0  0  0  0  0  0  0  0
   -2.1578   -1.2286   -2.2625 C   0  0  0  0  0  0  0  0  0  0  0  0
   -3.6579   -1.2768   -2.4585 C   0  0  0  0  0  0  0  0  0  0  0  0
    2.1362   -3.7853   -1.2594 H   0  0  0  0  0  0  0  0  0  0  0  0
    2.6829   -4.0858    0.3955 H   0  0  0  0  0  0  0  0  0  0  0  0
    1.0303   -4.5115   -0.0810 H   0  0  0  0  0  0  0  0  0  0  0  0
    1.0400   -2.4032    1.2468 H   0  0  0  0  0  0  0  0  0  0  0  0
    0.5046   -2.0950   -0.4240 H   0  0  0  0  0  0  0  0  0  0  0  0
    5.6720    0.8626   -0.6761 H   0  0  0  0  0  0  0  0  0  0  0  0
    4.6504    1.6022    0.5918 H   0  0  0  0  0  0  0  0  0  0  0  0
    4.3629   -0.5925    1.6828 H   0  0  0  0  0  0  0  0  0  0  0  0
    5.3097   -1.3785    0.4092 H   0  0  0  0  0  0  0  0  0  0  0  0
    6.0864   -0.2308    1.5147 H   0  0  0  0  0  0  0  0  0  0  0  0
   -0.0082    1.8898    0.3352 H   0  0  0  0  0  0  0  0  0  0  0  0
    0.0084    2.1770    2.1122 H   0  0  0  0  0  0  0  0  0  0  0  0
   -4.7311    1.3981    0.5261 H   0  0  0  0  0  0  0  0  0  0  0  0
   -5.3528   -0.0080    1.4436 H   0  0  0  0  0  0  0  0  0  0  0  0
   -3.5547    0.4336    3.1783 H   0  0  0  0  0  0  0  0  0  0  0  0
   -3.0880    1.8818    2.2706 H   0  0  0  0  0  0  0  0  0  0  0  0
   -4.6904    1.7864    3.0133 H   0  0  0  0  0  0  0  0  0  0  0  0
   -1.7111   -0.3962   -2.8169 H   0  0  0  0  0  0  0  0  0  0  0  0
   -1.6784   -2.1610   -2.5644 H   0  0  0  0  0  0  0  0  0  0  0  0
   -4.0980   -0.3175   -2.1882 H   0  0  0  0  0  0  0  0  0  0  0  0
   -3.8763   -1.4828   -3.5016 H   0  0  0  0  0  0  0  0  0  0  0  0
   -4.0919   -2.0534   -1.8340 H   0  0  0  0  0  0  0  0  0  0  0  0
  1  2  1  0  0  0  0
  2  3  1  0  0  0  0
  3  4  2  0  0  0  0
  4  5  2  0  0  0  0
  4  6  2  0  0  0  0
  6  7  1  0  0  0  0
  7  8  1  0  0  0  0
  4  9  1  0  0  0  0
  9 10  1  0  0  0  0
 10 11  1  0  0  0  0
 11 12  1  0  0  0  0
 12 13  2  0  0  0  0
 12 14  2  0  0  0  0
 14 15  1  0  0  0  0
 15 16  1  0  0  0  0
 12 17  2  0  0  0  0
 17 18  1  0  0  0  0
 18 19  1  0  0  0  0
  1 20  1  0  0  0  0
  1 21  1  0  0  0  0
  1 22  1  0  0  0  0
  2 23  1  0  0  0  0
  2 24  1  0  0  0  0
  7 25  1  0  0  0  0
  7 26  1  0  0  0  0
  8 27  1  0  0  0  0
  8 28  1  0  0  0  0
  8 29  1  0  0  0  0
 10 30  1  0  0  0  0
 10 31  1  0  0  0  0
 15 32  1  0  0  0  0
 15 33  1  0  0  0  0
 16 34  1  0  0  0  0
 16 35  1  0  0  0  0
 16 36  1  0  0  0  0
 18 37  1  0  0  0  0
 18 38  1  0  0  0  0
 19 39  1  0  0  0  0
 19 40  1  0  0  0  0
 19 41  1  0  0  0  0
M  END
