 xtb: 6.7.1 (edcfbbe)
          04092505213D

 41 40  0     0  0            999 V2000
    2.9672    2.0757    0.8439 C   0  0  0  0  0  0  0  0  0  0  0  0
    1.6319    1.6962    1.4493 C   0  0  0  0  0  0  0  0  0  0  0  0
    1.4679    0.2720    1.6203 O   0  0  0  0  0  0  0  0  0  0  0  0
    1.6940   -0.8539    0.5244 P   0  0  0  0  0  0  0  0  0  0  0  0
    0.8781   -2.5428    1.0736 S   0  0  0  0  0  0  0  0  0  0  0  0
    3.2759   -0.9667    0.2956 O   0  0  0  0  0  0  0  0  0  0  0  0
    4.0898   -1.9073    1.0132 C   0  0  0  0  0  0  0  0  0  0  0  0
    4.2725   -1.5033    2.4628 C   0  0  0  0  0  0  0  0  0  0  0  0
    1.2279   -0.0783   -1.3904 S   0  0  0  0  0  0  0  0  0  0  0  0
   -0.0660   -1.2458   -1.8892 C   0  0  0  0  0  0  0  0  0  0  0  0
   -1.6945   -0.4990   -2.2343 S   0  0  0  0  0  0  0  0  0  0  0  0
   -1.9935    0.6900   -0.5026 P   0  0  0  0  0  0  0  0  0  0  0  0
   -3.8461    1.2321   -0.1832 S   0  0  0  0  0  0  0  0  0  0  0  0
   -0.9439    1.8770   -0.6454 O   0  0  0  0  0  0  0  0  0  0  0  0
   -1.0506    2.8325   -1.7228 C   0  0  0  0  0  0  0  0  0  0  0  0
   -1.7253    4.1031   -1.2456 C   0  0  0  0  0  0  0  0  0  0  0  0
   -1.2575   -0.0788    0.6814 O   0  0  0  0  0  0  0  0  0  0  0  0
   -2.0365   -0.7629    1.6829 C   0  0  0  0  0  0  0  0  0  0  0  0
   -2.6946   -2.0128    1.1349 C   0  0  0  0  0  0  0  0  0  0  0  0
    3.0292    3.1577    0.7793 H   0  0  0  0  0  0  0  0  0  0  0  0
    3.7837    1.7079    1.4600 H   0  0  0  0  0  0  0  0  0  0  0  0
    3.0640    1.6544   -0.1561 H   0  0  0  0  0  0  0  0  0  0  0  0
    0.8053    2.0564    0.8329 H   0  0  0  0  0  0  0  0  0  0  0  0
    1.5253    2.0834    2.4644 H   0  0  0  0  0  0  0  0  0  0  0  0
    3.6238   -2.8959    0.9483 H   0  0  0  0  0  0  0  0  0  0  0  0
    5.0360   -1.9094    0.4703 H   0  0  0  0  0  0  0  0  0  0  0  0
    4.7329   -0.5212    2.5297 H   0  0  0  0  0  0  0  0  0  0  0  0
    3.3036   -1.4743    2.9613 H   0  0  0  0  0  0  0  0  0  0  0  0
    4.9049   -2.2301    2.9628 H   0  0  0  0  0  0  0  0  0  0  0  0
   -0.1690   -2.0045   -1.1092 H   0  0  0  0  0  0  0  0  0  0  0  0
    0.2284   -1.6961   -2.8341 H   0  0  0  0  0  0  0  0  0  0  0  0
   -0.0206    3.0152   -2.0368 H   0  0  0  0  0  0  0  0  0  0  0  0
   -1.6067    2.3809   -2.5514 H   0  0  0  0  0  0  0  0  0  0  0  0
   -2.7429    3.8897   -0.9255 H   0  0  0  0  0  0  0  0  0  0  0  0
   -1.1777    4.5281   -0.4092 H   0  0  0  0  0  0  0  0  0  0  0  0
   -1.7525    4.8195   -2.0601 H   0  0  0  0  0  0  0  0  0  0  0  0
   -1.3136   -1.0011    2.4647 H   0  0  0  0  0  0  0  0  0  0  0  0
   -2.7897   -0.0684    2.0661 H   0  0  0  0  0  0  0  0  0  0  0  0
   -1.9438   -2.7187    0.7876 H   0  0  0  0  0  0  0  0  0  0  0  0
   -3.2794   -2.4797    1.9207 H   0  0  0  0  0  0  0  0  0  0  0  0
   -3.3560   -1.7517    0.3087 H   0  0  0  0  0  0  0  0  0  0  0  0
  1  2  1  0  0  0  0
  2  3  1  0  0  0  0
  3  4  2  0  0  0  0
  4  5  2  0  0  0  0
  4  6  1  0  0  0  0
  6  7  1  0  0  0  0
  7  8  1  0  0  0  0
  4  9  1  0  0  0  0
  9 10  1  0  0  0  0
 10 11  1  0  0  0  0
 11 12  1  0  0  0  0
 12 13  2  0  0  0  0
 12 14  1  0  0  0  0
 14 15  1  0  0  0  0
 15 16  1  0  0  0  0
 12 17  1  0  0  0  0
 17 18  1  0  0  0  0
 18 19  1  0  0  0  0
  1 20  1  0  0  0  0
  1 21  1  0  0  0  0
  1 22  1  0  0  0  0
  2 23  1  0  0  0  0
  2 24  1  0  0  0  0
  7 25  1  0  0  0  0
  7 26  1  0  0  0  0
  8 27  1  0  0  0  0
  8 28  1  0  0  0  0
  8 29  1  0  0  0  0
 10 30  1  0  0  0  0
 10 31  1  0  0  0  0
 15 32  1  0  0  0  0
 15 33  1  0  0  0  0
 16 34  1  0  0  0  0
 16 35  1  0  0  0  0
 16 36  1  0  0  0  0
 18 37  1  0  0  0  0
 18 38  1  0  0  0  0
 19 39  1  0  0  0  0
 19 40  1  0  0  0  0
 19 41  1  0  0  0  0
M  END
