 xtb: 6.7.1 (edcfbbe)
          04092507313D

 38 37  0     0  0            999 V2000
    3.9950   -2.7809    0.4854 C   0  0  0  0  0  0  0  0  0  0  0  0
    2.4779   -2.7899    0.3920 C   0  0  0  0  0  0  0  0  0  0  0  0
    2.0233   -2.0107   -0.7306 O   0  0  0  0  0  0  0  0  0  0  0  0
    1.9421   -0.7060   -0.6075 C   0  0  0  0  0  0  0  0  0  0  0  0
    2.1971   -0.0761    0.3998 O   0  0  0  0  0  0  0  0  0  0  0  0
    1.5016   -0.0397   -1.8982 C   0  0  0  0  0  0  0  0  0  0  0  0
    0.3249    0.9080   -1.6462 C   0  0  0  0  0  0  0  0  0  0  0  0
    0.2451    1.6265   -2.4652 H   0  0  0  0  0  0  0  0  0  0  0  0
    0.4930    1.6589   -0.3393 C   0  0  0  0  0  0  0  0  0  0  0  0
   -0.2558    1.4924    0.6095 O   0  0  0  0  0  0  0  0  0  0  0  0
    1.4618    2.5220   -0.3864 O   0  0  0  0  0  0  0  0  0  0  0  0
    1.7894    3.2428    0.8214 C   0  0  0  0  0  0  0  0  0  0  0  0
    2.7777    4.3322    0.4584 C   0  0  0  0  0  0  0  0  0  0  0  0
   -1.2755    0.0382   -1.6197 S   0  0  0  0  0  0  0  0  0  0  0  0
   -1.7744   -0.3756    0.4137 P   0  0  0  0  0  0  0  0  0  0  0  0
   -0.5597   -1.2410    1.6871 S   0  0  0  0  0  0  0  0  0  0  0  0
   -2.6841    0.7842    0.9992 O   0  0  0  0  0  0  0  0  0  0  0  0
   -3.8885    1.2256    0.3450 C   0  0  0  0  0  0  0  0  0  0  0  0
   -2.9655   -1.4083    0.0398 O   0  0  0  0  0  0  0  0  0  0  0  0
   -2.7039   -2.7441   -0.3887 C   0  0  0  0  0  0  0  0  0  0  0  0
    4.4291   -3.1307   -0.4473 H   0  0  0  0  0  0  0  0  0  0  0  0
    4.3512   -1.7741    0.6915 H   0  0  0  0  0  0  0  0  0  0  0  0
    4.3043   -3.4344    1.2941 H   0  0  0  0  0  0  0  0  0  0  0  0
    2.0203   -2.3882    1.3015 H   0  0  0  0  0  0  0  0  0  0  0  0
    2.0946   -3.7907    0.1944 H   0  0  0  0  0  0  0  0  0  0  0  0
    1.2290   -0.7961   -2.6325 H   0  0  0  0  0  0  0  0  0  0  0  0
    2.3480    0.5454   -2.2642 H   0  0  0  0  0  0  0  0  0  0  0  0
    0.8646    3.6448    1.2464 H   0  0  0  0  0  0  0  0  0  0  0  0
    2.2105    2.5189    1.5262 H   0  0  0  0  0  0  0  0  0  0  0  0
    3.0460    4.8807    1.3549 H   0  0  0  0  0  0  0  0  0  0  0  0
    3.6715    3.8925    0.0271 H   0  0  0  0  0  0  0  0  0  0  0  0
    2.3356    5.0146   -0.2612 H   0  0  0  0  0  0  0  0  0  0  0  0
   -4.1648    2.1447    0.8558 H   0  0  0  0  0  0  0  0  0  0  0  0
   -4.6643    0.4700    0.4549 H   0  0  0  0  0  0  0  0  0  0  0  0
   -3.6993    1.4121   -0.7125 H   0  0  0  0  0  0  0  0  0  0  0  0
   -2.3755   -2.7438   -1.4281 H   0  0  0  0  0  0  0  0  0  0  0  0
   -3.6455   -3.2771   -0.2840 H   0  0  0  0  0  0  0  0  0  0  0  0
   -1.9381   -3.1954    0.2456 H   0  0  0  0  0  0  0  0  0  0  0  0
  1  2  1  0  0  0  0
  2  3  1  0  0  0  0
  3  4  4  0  0  0  0
  4  5  2  0  0  0  0
  4  6  1  0  0  0  0
  6  7  1  0  0  0  0
  7  8  1  0  0  0  0
  7  9  1  0  0  0  0
  9 10  2  0  0  0  0
  9 11  4  0  0  0  0
 11 12  1  0  0  0  0
 12 13  1  0  0  0  0
  7 14  1  0  0  0  0
 14 15  1  0  0  0  0
 15 16  2  0  0  0  0
 15 17  2  0  0  0  0
 17 18  1  0  0  0  0
 15 19  1  0  0  0  0
 19 20  1  0  0  0  0
  1 21  1  0  0  0  0
  1 22  1  0  0  0  0
  1 23  1  0  0  0  0
  2 24  1  0  0  0  0
  2 25  1  0  0  0  0
  6 26  1  0  0  0  0
  6 27  1  0  0  0  0
 12 28  1  0  0  0  0
 12 29  1  0  0  0  0
 13 30  1  0  0  0  0
 13 31  1  0  0  0  0
 13 32  1  0  0  0  0
 18 33  1  0  0  0  0
 18 34  1  0  0  0  0
 18 35  1  0  0  0  0
 20 36  1  0  0  0  0
 20 37  1  0  0  0  0
 20 38  1  0  0  0  0
M  END
