 xtb: 6.7.1 (edcfbbe)
          04092507313D

 38 37  0     0  0            999 V2000
    5.2476   -0.6842   -0.6438 C   0  0  0  0  0  0  0  0  0  0  0  0
    4.2452   -0.8678    0.4838 C   0  0  0  0  0  0  0  0  0  0  0  0
    2.8941   -0.7597   -0.0107 O   0  0  0  0  0  0  0  0  0  0  0  0
    2.2955   -1.8558   -0.4512 C   0  0  0  0  0  0  0  0  0  0  0  0
    2.8003   -2.9549   -0.4469 O   0  0  0  0  0  0  0  0  0  0  0  0
    0.8855   -1.5874   -0.9301 C   0  0  0  0  0  0  0  0  0  0  0  0
    0.6293   -0.1185   -1.2250 C   0  0  0  0  0  0  0  0  0  0  0  0
    1.2113    0.2403   -2.0747 H   0  0  0  0  0  0  0  0  0  0  0  0
    0.8651    0.7771   -0.0286 C   0  0  0  0  0  0  0  0  0  0  0  0
    0.3664    0.5583    1.0573 O   0  0  0  0  0  0  0  0  0  0  0  0
    1.5937    1.8187   -0.3318 O   0  0  0  0  0  0  0  0  0  0  0  0
    1.7868    2.8397    0.6698 C   0  0  0  0  0  0  0  0  0  0  0  0
    0.7176    3.9114    0.5295 C   0  0  0  0  0  0  0  0  0  0  0  0
   -1.1191    0.1902   -1.6824 S   0  0  0  0  0  0  0  0  0  0  0  0
   -2.1552   -0.0455    0.1373 P   0  0  0  0  0  0  0  0  0  0  0  0
   -1.8926   -1.6020    1.3149 S   0  0  0  0  0  0  0  0  0  0  0  0
   -2.1281    1.4131    0.7755 O   0  0  0  0  0  0  0  0  0  0  0  0
   -2.3658    1.6097    2.1779 C   0  0  0  0  0  0  0  0  0  0  0  0
   -3.6551   -0.0102   -0.4303 O   0  0  0  0  0  0  0  0  0  0  0  0
   -4.2654   -1.1570   -1.0297 C   0  0  0  0  0  0  0  0  0  0  0  0
    6.2520   -0.7004   -0.2339 H   0  0  0  0  0  0  0  0  0  0  0  0
    5.1477   -1.4914   -1.3656 H   0  0  0  0  0  0  0  0  0  0  0  0
    5.0786    0.2647   -1.1452 H   0  0  0  0  0  0  0  0  0  0  0  0
    4.3298   -0.0749    1.2277 H   0  0  0  0  0  0  0  0  0  0  0  0
    4.3641   -1.8461    0.9575 H   0  0  0  0  0  0  0  0  0  0  0  0
    0.2220   -1.9322   -0.1275 H   0  0  0  0  0  0  0  0  0  0  0  0
    0.6869   -2.2005   -1.8094 H   0  0  0  0  0  0  0  0  0  0  0  0
    1.7503    2.3716    1.6571 H   0  0  0  0  0  0  0  0  0  0  0  0
    2.7812    3.2393    0.4720 H   0  0  0  0  0  0  0  0  0  0  0  0
    0.7676    4.3627   -0.4574 H   0  0  0  0  0  0  0  0  0  0  0  0
   -0.2694    3.4724    0.6623 H   0  0  0  0  0  0  0  0  0  0  0  0
    0.8711    4.6761    1.2836 H   0  0  0  0  0  0  0  0  0  0  0  0
   -3.3754    1.2942    2.4374 H   0  0  0  0  0  0  0  0  0  0  0  0
   -2.2411    2.6762    2.3474 H   0  0  0  0  0  0  0  0  0  0  0  0
   -1.6370    1.0400    2.7561 H   0  0  0  0  0  0  0  0  0  0  0  0
   -5.3350   -0.9634   -1.0165 H   0  0  0  0  0  0  0  0  0  0  0  0
   -4.0325   -2.0512   -0.4481 H   0  0  0  0  0  0  0  0  0  0  0  0
   -3.9091   -1.2736   -2.0525 H   0  0  0  0  0  0  0  0  0  0  0  0
  1  2  1  0  0  0  0
  2  3  1  0  0  0  0
  3  4  1  0  0  0  0
  4  5  2  0  0  0  0
  4  6  1  0  0  0  0
  6  7  1  0  0  0  0
  7  8  1  0  0  0  0
  7  9  1  0  0  0  0
  9 10  2  0  0  0  0
  9 11  4  0  0  0  0
 11 12  1  0  0  0  0
 12 13  1  0  0  0  0
  7 14  1  0  0  0  0
 14 15  1  0  0  0  0
 15 16  2  0  0  0  0
 15 17  1  0  0  0  0
 17 18  1  0  0  0  0
 15 19  1  0  0  0  0
 19 20  1  0  0  0  0
  1 21  1  0  0  0  0
  1 22  1  0  0  0  0
  1 23  1  0  0  0  0
  2 24  1  0  0  0  0
  2 25  1  0  0  0  0
  6 26  1  0  0  0  0
  6 27  1  0  0  0  0
 12 28  1  0  0  0  0
 12 29  1  0  0  0  0
 13 30  1  0  0  0  0
 13 31  1  0  0  0  0
 13 32  1  0  0  0  0
 18 33  1  0  0  0  0
 18 34  1  0  0  0  0
 18 35  1  0  0  0  0
 20 36  1  0  0  0  0
 20 37  1  0  0  0  0
 20 38  1  0  0  0  0
M  END
