41
 xtb: 6.7.1 (edcfbbe)
C            3.07249213980218        2.37801777233014       -1.53920944086749
C            3.76473588550127        1.93346327750886       -0.27503289903792
O            3.59396727089596        0.49151578841199       -0.05324128321302
P            2.30235161380375       -0.14382745175658        0.67326792886460
S            1.46546209740804        0.94105135211792        2.05537377828289
O            2.85093293579401       -1.58720539661966        1.12081603146195
C            3.39069504091810       -1.82340096845773        2.47096601515910
C            4.75118495654114       -1.19640962093334        2.64780143423410
S            1.14436452411161       -0.67095357969232       -1.02109066381130
C           -0.10795280574842       -1.80039651273474       -0.28551213781567
S           -1.52225104595354       -1.07205008255521        0.63016026166492
P           -2.51204038426228       -0.01127874303508       -0.92228428672293
S           -2.50357447374355       -0.85259180144160       -2.67412029187893
O           -1.86183650738304        1.45641439893736       -0.97878676534743
C           -1.81832790047442        2.31933550279559        0.21548386862148
C           -0.88597799339916        3.46113640768315       -0.09010703415726
O           -3.92501848631438        0.28539247594814       -0.21241178111089
C           -5.12808002467363       -0.53001763761147       -0.43913617241132
C           -5.08218807544766       -1.84242331263925        0.30186894098165
H            3.30579299479521        3.43291264007983       -1.71685378535233
H            3.41840568042592        1.79822573322894       -2.39998354012667
H            1.98578016239898        2.28140303821682       -1.45614154442018
H            3.39731940147710        2.46748778554394        0.60647877231406
H            4.84715902250991        2.05912460622679       -0.34248702189577
H            2.66644009349694       -1.44853138403869        3.20004694195676
H            3.43512366242775       -2.91199552751476        2.53807798819178
H            5.14359109720533       -1.48623325608789        3.62778283766038
H            5.44716421969522       -1.54631520991020        1.88053973793635
H            4.69927632176673       -0.10408100625933        2.61319848282739
H            0.37750441605797       -2.48357975860476        0.41715733461849
H           -0.49528915510759       -2.37766480523422       -1.13009093780480
H           -2.83644659041092        2.66356433989061        0.41730495595579
H           -1.45509728632010        1.72465896098531        1.06044608669844
H            0.12305464483845        3.09468232342238       -0.29944183472733
H           -1.24272273926617        4.04424341077709       -0.94387324503834
H           -0.83820541993136        4.11941047980293        0.78309585305856
H           -5.93585235927040        0.10781573117244       -0.07513037926897
H           -5.24359371340041       -0.67160323022304       -1.51780131304018
H           -4.90304479312706       -1.68622225478946        1.36965189214690
H           -6.05230308767417       -2.33685766962488        0.18445110316748
H           -4.31129087708827       -2.50710557512859       -0.09745176113715
