41
 xtb: 6.7.1 (edcfbbe)
C            5.99024088441141       -0.89084632122875       -0.29444353321199
C            5.24127380492782       -0.04914543576798       -1.29834642500969
O            3.83029650670351       -0.45282851541708       -1.44177223303857
P            2.76643295477269       -0.19406539863309       -0.26335245863613
S            2.86990846387751        1.51211107834805        0.66756549562528
O            2.97832815137172       -1.52219547775153        0.62527640243454
C            2.55665017419004       -1.60202492938103        2.03069561490347
C            1.05744183036680       -1.68862100979577        2.17981647474141
S            0.95901229715650       -0.60275047947752       -1.30880407073128
C            0.14857429230773        1.04330885475622       -1.34709321046577
S           -0.82317121421812        1.51882307951661        0.13689515501854
P           -2.51646151786742        0.26673001548661       -0.08813448137569
S           -3.15821994542270       -0.02483548842643       -1.90538617214204
O           -3.54072033533830        0.93776869645036        0.95901503631231
C           -4.62012565421305        1.84861857451903        0.55320156433500
C           -4.11320091499228        3.24222425594255        0.27725223499030
O           -2.05250060856602       -1.04035499929792        0.72639101007870
C           -2.76442713699996       -2.32155799930841        0.59199640848118
C           -4.11647838544982       -2.29489898289748        1.26212463765949
H            5.63588248317213       -0.72147592163746        0.72635073992349
H            5.90546417916712       -1.95531217536316       -0.53106274921396
H            7.04835151409748       -0.61178556608177       -0.33629711146761
H            5.63976523689078       -0.17874132922762       -2.30626528302170
H            5.26382927930311        1.01400278182045       -1.03977245767998
H            3.05090027738780       -2.50646313127355        2.39116661903018
H            2.96944433261234       -0.73618689053609        2.55759373916416
H            0.82482716924253       -1.84922475129222        3.23777141154827
H            0.56713982215486       -0.76549540474581        1.85911661186376
H            0.65137090146671       -2.52596135094045        1.60501971975426
H           -0.51615213995347        1.02792966787854       -2.21597031658008
H            0.89683932543159        1.82853404703238       -1.47816341424251
H           -5.12519817907827        1.41580118189777       -0.31537764279829
H           -5.30090246094992        1.83087246856938        1.40671354230718
H           -3.55224606056655        3.63214626938158        1.13163175296127
H           -3.47759872736113        3.27280320109598       -0.61221228037560
H           -4.97410217230401        3.89623637504778        0.10370705188044
H           -2.83803346083923       -2.56128658538507       -0.47332988419453
H           -2.09096369554838       -3.03459769197274        1.07185212801286
H           -4.80953798956078       -1.61948537326717        0.75150291408534
H           -4.53995542695897       -3.30418671585147        1.22930046629940
H           -4.02899293396818       -1.99177646941864        2.30943466775038
