 xtb: 6.7.1 (edcfbbe)
          04092507313D

 38 37  0     0  0            999 V2000
    4.6555   -3.4603   -1.8715 C   0  0  0  0  0  0  0  0  0  0  0  0
    3.7628   -3.6331   -0.6527 C   0  0  0  0  0  0  0  0  0  0  0  0
    3.4115   -2.3564   -0.0852 O   0  0  0  0  0  0  0  0  0  0  0  0
    2.3617   -1.7209   -0.5680 C   0  0  0  0  0  0  0  0  0  0  0  0
    1.6407   -2.1437   -1.4436 O   0  0  0  0  0  0  0  0  0  0  0  0
    2.1769   -0.3807    0.1194 C   0  0  0  0  0  0  0  0  0  0  0  0
    0.7594    0.1264   -0.0825 C   0  0  0  0  0  0  0  0  0  0  0  0
    0.4774    0.0121   -1.1381 H   0  0  0  0  0  0  0  0  0  0  0  0
    0.5417    1.5777    0.2896 C   0  0  0  0  0  0  0  0  0  0  0  0
   -0.5028    1.9586    0.7826 O   0  0  0  0  0  0  0  0  0  0  0  0
    1.5524    2.3403   -0.0149 O   0  0  0  0  0  0  0  0  0  0  0  0
    1.4499    3.7589    0.2471 C   0  0  0  0  0  0  0  0  0  0  0  0
    1.8442    4.0732    1.6804 C   0  0  0  0  0  0  0  0  0  0  0  0
   -0.4333   -0.8641    0.8937 S   0  0  0  0  0  0  0  0  0  0  0  0
   -2.2110    0.0649    0.2152 P   0  0  0  0  0  0  0  0  0  0  0  0
   -2.1948    0.9526   -1.5411 S   0  0  0  0  0  0  0  0  0  0  0  0
   -3.1947   -1.2029    0.2317 O   0  0  0  0  0  0  0  0  0  0  0  0
   -3.0311   -2.2670   -0.7073 C   0  0  0  0  0  0  0  0  0  0  0  0
   -2.9411    0.7814    1.4242 O   0  0  0  0  0  0  0  0  0  0  0  0
   -3.1932    2.1849    1.5285 C   0  0  0  0  0  0  0  0  0  0  0  0
    5.5378   -2.8826   -1.6104 H   0  0  0  0  0  0  0  0  0  0  0  0
    4.9609   -4.4363   -2.2338 H   0  0  0  0  0  0  0  0  0  0  0  0
    4.1139   -2.9453   -2.6616 H   0  0  0  0  0  0  0  0  0  0  0  0
    4.2833   -4.1539    0.1510 H   0  0  0  0  0  0  0  0  0  0  0  0
    2.8429   -4.1618   -0.9176 H   0  0  0  0  0  0  0  0  0  0  0  0
    2.8784    0.3290   -0.3251 H   0  0  0  0  0  0  0  0  0  0  0  0
    2.4139   -0.4921    1.1770 H   0  0  0  0  0  0  0  0  0  0  0  0
    2.1389    4.2108   -0.4660 H   0  0  0  0  0  0  0  0  0  0  0  0
    0.4247    4.0774    0.0414 H   0  0  0  0  0  0  0  0  0  0  0  0
    1.8049    5.1467    1.8325 H   0  0  0  0  0  0  0  0  0  0  0  0
    1.1567    3.5945    2.3740 H   0  0  0  0  0  0  0  0  0  0  0  0
    2.8520    3.7203    1.8794 H   0  0  0  0  0  0  0  0  0  0  0  0
   -3.0509   -1.8741   -1.7259 H   0  0  0  0  0  0  0  0  0  0  0  0
   -3.8717   -2.9354   -0.5411 H   0  0  0  0  0  0  0  0  0  0  0  0
   -2.0878   -2.7881   -0.5349 H   0  0  0  0  0  0  0  0  0  0  0  0
   -4.2025    2.2815    1.9228 H   0  0  0  0  0  0  0  0  0  0  0  0
   -3.1202    2.6596    0.5486 H   0  0  0  0  0  0  0  0  0  0  0  0
   -2.4652    2.6269    2.2056 H   0  0  0  0  0  0  0  0  0  0  0  0
  1  2  1  0  0  0  0
  2  3  1  0  0  0  0
  3  4  1  0  0  0  0
  4  5  2  0  0  0  0
  4  6  1  0  0  0  0
  6  7  1  0  0  0  0
  7  8  1  0  0  0  0
  7  9  1  0  0  0  0
  9 10  2  0  0  0  0
  9 11  4  0  0  0  0
 11 12  1  0  0  0  0
 12 13  1  0  0  0  0
  7 14  1  0  0  0  0
 14 15  1  0  0  0  0
 15 16  2  0  0  0  0
 15 17  1  0  0  0  0
 17 18  1  0  0  0  0
 15 19  2  0  0  0  0
 19 20  1  0  0  0  0
  1 21  1  0  0  0  0
  1 22  1  0  0  0  0
  1 23  1  0  0  0  0
  2 24  1  0  0  0  0
  2 25  1  0  0  0  0
  6 26  1  0  0  0  0
  6 27  1  0  0  0  0
 12 28  1  0  0  0  0
 12 29  1  0  0  0  0
 13 30  1  0  0  0  0
 13 31  1  0  0  0  0
 13 32  1  0  0  0  0
 18 33  1  0  0  0  0
 18 34  1  0  0  0  0
 18 35  1  0  0  0  0
 20 36  1  0  0  0  0
 20 37  1  0  0  0  0
 20 38  1  0  0  0  0
M  END
