 xtb: 6.7.1 (edcfbbe)
          04092505213D

 41 40  0     0  0            999 V2000
    2.0447   -1.2913   -2.7544 C   0  0  0  0  0  0  0  0  0  0  0  0
    2.6749   -0.0291   -2.2007 C   0  0  0  0  0  0  0  0  0  0  0  0
    3.2268   -0.2705   -0.8929 O   0  0  0  0  0  0  0  0  0  0  0  0
    2.5305    0.1034    0.4811 P   0  0  0  0  0  0  0  0  0  0  0  0
    2.0775    1.9888    0.7756 S   0  0  0  0  0  0  0  0  0  0  0  0
    3.6358   -0.3382    1.5171 O   0  0  0  0  0  0  0  0  0  0  0  0
    4.5506   -1.4519    1.3604 C   0  0  0  0  0  0  0  0  0  0  0  0
    3.8407   -2.7857    1.2640 C   0  0  0  0  0  0  0  0  0  0  0  0
    0.9044   -1.2504    0.7171 S   0  0  0  0  0  0  0  0  0  0  0  0
   -0.1903   -0.2098    1.7369 C   0  0  0  0  0  0  0  0  0  0  0  0
   -1.9272   -0.5642    1.4239 S   0  0  0  0  0  0  0  0  0  0  0  0
   -2.2100    0.5753   -0.3664 P   0  0  0  0  0  0  0  0  0  0  0  0
   -0.6552    0.9629   -1.4853 S   0  0  0  0  0  0  0  0  0  0  0  0
   -2.8420    1.9445    0.0965 O   0  0  0  0  0  0  0  0  0  0  0  0
   -4.0460    2.0452    0.8951 C   0  0  0  0  0  0  0  0  0  0  0  0
   -5.2513    2.3091    0.0155 C   0  0  0  0  0  0  0  0  0  0  0  0
   -3.4431   -0.1591   -1.0445 O   0  0  0  0  0  0  0  0  0  0  0  0
   -3.5186   -1.5748   -1.3107 C   0  0  0  0  0  0  0  0  0  0  0  0
   -2.2550   -2.1296   -1.9329 C   0  0  0  0  0  0  0  0  0  0  0  0
    1.7104   -1.0989   -3.7683 H   0  0  0  0  0  0  0  0  0  0  0  0
    2.7680   -2.1016   -2.7575 H   0  0  0  0  0  0  0  0  0  0  0  0
    1.1857   -1.5777   -2.1531 H   0  0  0  0  0  0  0  0  0  0  0  0
    1.9458    0.7844   -2.1471 H   0  0  0  0  0  0  0  0  0  0  0  0
    3.5272    0.2886   -2.8045 H   0  0  0  0  0  0  0  0  0  0  0  0
    5.1598   -1.2674    0.4740 H   0  0  0  0  0  0  0  0  0  0  0  0
    5.1696   -1.3887    2.2567 H   0  0  0  0  0  0  0  0  0  0  0  0
    3.2327   -2.8274    0.3622 H   0  0  0  0  0  0  0  0  0  0  0  0
    4.5831   -3.5769    1.2271 H   0  0  0  0  0  0  0  0  0  0  0  0
    3.1965   -2.9389    2.1258 H   0  0  0  0  0  0  0  0  0  0  0  0
    0.0310    0.8381    1.5147 H   0  0  0  0  0  0  0  0  0  0  0  0
   -0.0181   -0.4356    2.7863 H   0  0  0  0  0  0  0  0  0  0  0  0
   -4.1675    1.1237    1.4719 H   0  0  0  0  0  0  0  0  0  0  0  0
   -3.8565    2.8813    1.5710 H   0  0  0  0  0  0  0  0  0  0  0  0
   -5.4154    1.4742   -0.6603 H   0  0  0  0  0  0  0  0  0  0  0  0
   -6.1266    2.4423    0.6434 H   0  0  0  0  0  0  0  0  0  0  0  0
   -5.0911    3.2083   -0.5732 H   0  0  0  0  0  0  0  0  0  0  0  0
   -3.7386   -2.0805   -0.3668 H   0  0  0  0  0  0  0  0  0  0  0  0
   -4.3690   -1.6641   -1.9889 H   0  0  0  0  0  0  0  0  0  0  0  0
   -1.9941   -1.5683   -2.8273 H   0  0  0  0  0  0  0  0  0  0  0  0
   -1.4264   -2.0618   -1.2277 H   0  0  0  0  0  0  0  0  0  0  0  0
   -2.4089   -3.1718   -2.1930 H   0  0  0  0  0  0  0  0  0  0  0  0
  1  2  1  0  0  0  0
  2  3  1  0  0  0  0
  3  4  2  0  0  0  0
  4  5  2  0  0  0  0
  4  6  2  0  0  0  0
  6  7  1  0  0  0  0
  7  8  1  0  0  0  0
  4  9  1  0  0  0  0
  9 10  1  0  0  0  0
 10 11  1  0  0  0  0
 11 12  1  0  0  0  0
 12 13  2  0  0  0  0
 12 14  2  0  0  0  0
 14 15  1  0  0  0  0
 15 16  1  0  0  0  0
 12 17  2  0  0  0  0
 17 18  1  0  0  0  0
 18 19  1  0  0  0  0
  1 20  1  0  0  0  0
  1 21  1  0  0  0  0
  1 22  1  0  0  0  0
  2 23  1  0  0  0  0
  2 24  1  0  0  0  0
  7 25  1  0  0  0  0
  7 26  1  0  0  0  0
  8 27  1  0  0  0  0
  8 28  1  0  0  0  0
  8 29  1  0  0  0  0
 10 30  1  0  0  0  0
 10 31  1  0  0  0  0
 15 32  1  0  0  0  0
 15 33  1  0  0  0  0
 16 34  1  0  0  0  0
 16 35  1  0  0  0  0
 16 36  1  0  0  0  0
 18 37  1  0  0  0  0
 18 38  1  0  0  0  0
 19 39  1  0  0  0  0
 19 40  1  0  0  0  0
 19 41  1  0  0  0  0
M  END
