 xtb: 6.7.1 (edcfbbe)
          04092505213D

 41 40  0     0  0            999 V2000
    3.2847    2.2416   -1.0496 C   0  0  0  0  0  0  0  0  0  0  0  0
    3.8454    1.1184   -0.2003 C   0  0  0  0  0  0  0  0  0  0  0  0
    3.1167   -0.1074   -0.4442 O   0  0  0  0  0  0  0  0  0  0  0  0
    2.0734   -0.7160    0.5732 P   0  0  0  0  0  0  0  0  0  0  0  0
    1.5159    0.4427    2.0558 S   0  0  0  0  0  0  0  0  0  0  0  0
    2.8276   -2.0291    1.0515 O   0  0  0  0  0  0  0  0  0  0  0  0
    2.4309   -2.7972    2.2042 C   0  0  0  0  0  0  0  0  0  0  0  0
    3.6786   -3.3804    2.8376 C   0  0  0  0  0  0  0  0  0  0  0  0
    0.6242   -1.5164   -0.7622 S   0  0  0  0  0  0  0  0  0  0  0  0
    0.3265   -0.0292   -1.7611 C   0  0  0  0  0  0  0  0  0  0  0  0
   -0.4116    1.3329   -0.8335 S   0  0  0  0  0  0  0  0  0  0  0  0
   -2.3748    0.5075   -0.7453 P   0  0  0  0  0  0  0  0  0  0  0  0
   -2.9699   -0.3932   -2.3758 S   0  0  0  0  0  0  0  0  0  0  0  0
   -3.2386    1.7088   -0.1684 O   0  0  0  0  0  0  0  0  0  0  0  0
   -3.2321    3.0583   -0.6736 C   0  0  0  0  0  0  0  0  0  0  0  0
   -3.5091    3.1289   -2.1604 C   0  0  0  0  0  0  0  0  0  0  0  0
   -2.4190   -0.5161    0.4504 O   0  0  0  0  0  0  0  0  0  0  0  0
   -2.1021   -0.1825    1.8246 C   0  0  0  0  0  0  0  0  0  0  0  0
   -1.7240   -1.4667    2.5318 C   0  0  0  0  0  0  0  0  0  0  0  0
    3.8664    3.1410   -0.8751 H   0  0  0  0  0  0  0  0  0  0  0  0
    3.3373    1.9836   -2.1039 H   0  0  0  0  0  0  0  0  0  0  0  0
    2.2467    2.4349   -0.7807 H   0  0  0  0  0  0  0  0  0  0  0  0
    3.7809    1.3678    0.8630 H   0  0  0  0  0  0  0  0  0  0  0  0
    4.8788    0.8906   -0.4646 H   0  0  0  0  0  0  0  0  0  0  0  0
    1.9039   -2.1379    2.9028 H   0  0  0  0  0  0  0  0  0  0  0  0
    1.7524   -3.5835    1.8636 H   0  0  0  0  0  0  0  0  0  0  0  0
    4.3330   -2.5825    3.1774 H   0  0  0  0  0  0  0  0  0  0  0  0
    3.3928   -3.9951    3.6849 H   0  0  0  0  0  0  0  0  0  0  0  0
    4.2119   -3.9893    2.1133 H   0  0  0  0  0  0  0  0  0  0  0  0
   -0.3630   -0.3328   -2.5517 H   0  0  0  0  0  0  0  0  0  0  0  0
    1.2688    0.3264   -2.1692 H   0  0  0  0  0  0  0  0  0  0  0  0
   -4.0164    3.5505   -0.0961 H   0  0  0  0  0  0  0  0  0  0  0  0
   -2.2617    3.5041   -0.4375 H   0  0  0  0  0  0  0  0  0  0  0  0
   -4.4436    2.6253   -2.3964 H   0  0  0  0  0  0  0  0  0  0  0  0
   -3.5727    4.1682   -2.4660 H   0  0  0  0  0  0  0  0  0  0  0  0
   -2.7082    2.6427   -2.7158 H   0  0  0  0  0  0  0  0  0  0  0  0
   -1.2747    0.5340    1.8410 H   0  0  0  0  0  0  0  0  0  0  0  0
   -2.9858    0.2789    2.2681 H   0  0  0  0  0  0  0  0  0  0  0  0
   -2.5460   -2.1749    2.4888 H   0  0  0  0  0  0  0  0  0  0  0  0
   -0.8547   -1.9126    2.0517 H   0  0  0  0  0  0  0  0  0  0  0  0
   -1.4827   -1.2437    3.5661 H   0  0  0  0  0  0  0  0  0  0  0  0
  1  2  1  0  0  0  0
  2  3  1  0  0  0  0
  3  4  2  0  0  0  0
  4  5  2  0  0  0  0
  4  6  2  0  0  0  0
  6  7  1  0  0  0  0
  7  8  1  0  0  0  0
  4  9  1  0  0  0  0
  9 10  1  0  0  0  0
 10 11  1  0  0  0  0
 11 12  1  0  0  0  0
 12 13  2  0  0  0  0
 12 14  2  0  0  0  0
 14 15  1  0  0  0  0
 15 16  1  0  0  0  0
 12 17  2  0  0  0  0
 17 18  1  0  0  0  0
 18 19  1  0  0  0  0
  1 20  1  0  0  0  0
  1 21  1  0  0  0  0
  1 22  1  0  0  0  0
  2 23  1  0  0  0  0
  2 24  1  0  0  0  0
  7 25  1  0  0  0  0
  7 26  1  0  0  0  0
  8 27  1  0  0  0  0
  8 28  1  0  0  0  0
  8 29  1  0  0  0  0
 10 30  1  0  0  0  0
 10 31  1  0  0  0  0
 15 32  1  0  0  0  0
 15 33  1  0  0  0  0
 16 34  1  0  0  0  0
 16 35  1  0  0  0  0
 16 36  1  0  0  0  0
 18 37  1  0  0  0  0
 18 38  1  0  0  0  0
 19 39  1  0  0  0  0
 19 40  1  0  0  0  0
 19 41  1  0  0  0  0
M  END
