 xtb: 6.7.1 (edcfbbe)
          04092505213D

 41 40  0     0  0            999 V2000
    1.6547   -2.6968    1.5528 C   0  0  0  0  0  0  0  0  0  0  0  0
    1.8529   -1.2622    1.9977 C   0  0  0  0  0  0  0  0  0  0  0  0
    2.9060   -0.5991    1.2785 O   0  0  0  0  0  0  0  0  0  0  0  0
    2.8393   -0.1843   -0.2582 P   0  0  0  0  0  0  0  0  0  0  0  0
    3.0011   -1.5971   -1.6057 S   0  0  0  0  0  0  0  0  0  0  0  0
    4.0703    0.7884   -0.3691 O   0  0  0  0  0  0  0  0  0  0  0  0
    4.5157    1.7212    0.6457 C   0  0  0  0  0  0  0  0  0  0  0  0
    3.5152    2.8307    0.8899 C   0  0  0  0  0  0  0  0  0  0  0  0
    1.0647    1.0126   -0.4327 S   0  0  0  0  0  0  0  0  0  0  0  0
    0.0708   -0.0954   -1.4578 C   0  0  0  0  0  0  0  0  0  0  0  0
   -1.0443   -1.1358   -0.4931 S   0  0  0  0  0  0  0  0  0  0  0  0
   -2.5271    0.3712   -0.1749 P   0  0  0  0  0  0  0  0  0  0  0  0
   -2.8432    1.5773   -1.6836 S   0  0  0  0  0  0  0  0  0  0  0  0
   -2.0575    1.2153    1.0695 O   0  0  0  0  0  0  0  0  0  0  0  0
   -1.8101    0.6480    2.3795 C   0  0  0  0  0  0  0  0  0  0  0  0
   -2.9943    0.8868    3.2939 C   0  0  0  0  0  0  0  0  0  0  0  0
   -3.7470   -0.4550    0.4170 O   0  0  0  0  0  0  0  0  0  0  0  0
   -4.3058   -1.6451   -0.1706 C   0  0  0  0  0  0  0  0  0  0  0  0
   -4.7169   -1.4486   -1.6144 C   0  0  0  0  0  0  0  0  0  0  0  0
    0.9358   -3.1790    2.2070 H   0  0  0  0  0  0  0  0  0  0  0  0
    1.2787   -2.7325    0.5317 H   0  0  0  0  0  0  0  0  0  0  0  0
    2.5973   -3.2366    1.5924 H   0  0  0  0  0  0  0  0  0  0  0  0
    2.1797   -1.2104    3.0378 H   0  0  0  0  0  0  0  0  0  0  0  0
    0.9303   -0.6872    1.8714 H   0  0  0  0  0  0  0  0  0  0  0  0
    4.7158    1.1618    1.5611 H   0  0  0  0  0  0  0  0  0  0  0  0
    5.4490    2.1076    0.2336 H   0  0  0  0  0  0  0  0  0  0  0  0
    2.5964    2.4294    1.3140 H   0  0  0  0  0  0  0  0  0  0  0  0
    3.9413    3.5474    1.5851 H   0  0  0  0  0  0  0  0  0  0  0  0
    3.2737    3.3364   -0.0417 H   0  0  0  0  0  0  0  0  0  0  0  0
    0.7393   -0.7579   -2.0129 H   0  0  0  0  0  0  0  0  0  0  0  0
   -0.5252    0.5270   -2.1274 H   0  0  0  0  0  0  0  0  0  0  0  0
   -1.6041   -0.4210    2.2724 H   0  0  0  0  0  0  0  0  0  0  0  0
   -0.9202    1.1680    2.7397 H   0  0  0  0  0  0  0  0  0  0  0  0
   -2.7632    0.5047    4.2833 H   0  0  0  0  0  0  0  0  0  0  0  0
   -3.2044    1.9507    3.3589 H   0  0  0  0  0  0  0  0  0  0  0  0
   -3.8751    0.3805    2.9083 H   0  0  0  0  0  0  0  0  0  0  0  0
   -3.5674   -2.4470   -0.0847 H   0  0  0  0  0  0  0  0  0  0  0  0
   -5.1680   -1.8635    0.4619 H   0  0  0  0  0  0  0  0  0  0  0  0
   -5.3960   -0.6041   -1.7049 H   0  0  0  0  0  0  0  0  0  0  0  0
   -3.8418   -1.2512   -2.2323 H   0  0  0  0  0  0  0  0  0  0  0  0
   -5.2084   -2.3462   -1.9758 H   0  0  0  0  0  0  0  0  0  0  0  0
  1  2  1  0  0  0  0
  2  3  1  0  0  0  0
  3  4  2  0  0  0  0
  4  5  2  0  0  0  0
  4  6  2  0  0  0  0
  6  7  1  0  0  0  0
  7  8  1  0  0  0  0
  4  9  1  0  0  0  0
  9 10  1  0  0  0  0
 10 11  1  0  0  0  0
 11 12  1  0  0  0  0
 12 13  2  0  0  0  0
 12 14  2  0  0  0  0
 14 15  1  0  0  0  0
 15 16  1  0  0  0  0
 12 17  2  0  0  0  0
 17 18  1  0  0  0  0
 18 19  1  0  0  0  0
  1 20  1  0  0  0  0
  1 21  1  0  0  0  0
  1 22  1  0  0  0  0
  2 23  1  0  0  0  0
  2 24  1  0  0  0  0
  7 25  1  0  0  0  0
  7 26  1  0  0  0  0
  8 27  1  0  0  0  0
  8 28  1  0  0  0  0
  8 29  1  0  0  0  0
 10 30  1  0  0  0  0
 10 31  1  0  0  0  0
 15 32  1  0  0  0  0
 15 33  1  0  0  0  0
 16 34  1  0  0  0  0
 16 35  1  0  0  0  0
 16 36  1  0  0  0  0
 18 37  1  0  0  0  0
 18 38  1  0  0  0  0
 19 39  1  0  0  0  0
 19 40  1  0  0  0  0
 19 41  1  0  0  0  0
M  END
