8
 xtb: 6.7.1 (edcfbbe)
C            0.70750169725702       -0.00020263341206       -1.16605688273893
C           -0.36735151217715       -0.00008286985745       -0.08782791812664
Cl          -1.95507319219390        0.00060071056311       -0.94786402216737
Cl          -0.26755835946886       -1.46398022393506        0.94748509340262
Cl          -0.26660223600341        1.46334405212382        0.94806592315604
Cl           2.37209824814327       -0.00109560866108       -0.46783854077865
H            0.60267147664321        0.89629956070905       -1.77983000647714
H            0.60195340888401       -0.89626362241305       -1.78035277892325
