 xtb: 6.7.1 (edcfbbe)
          04092509473D

 38 37  0     0  0            999 V2000
    5.4491   -1.2392   -0.6023 C   0  0  0  0  0  0  0  0  0  0  0  0
    4.7108   -1.9308   -1.7367 C   0  0  0  0  0  0  0  0  0  0  0  0
    3.3470   -2.2144   -1.3699 O   0  0  0  0  0  0  0  0  0  0  0  0
    2.4401   -1.2713   -1.5288 C   0  0  0  0  0  0  0  0  0  0  0  0
    2.6553   -0.1736   -1.9948 O   0  0  0  0  0  0  0  0  0  0  0  0
    1.0659   -1.7664   -1.1158 C   0  0  0  0  0  0  0  0  0  0  0  0
    0.2899   -0.6395   -0.4522 C   0  0  0  0  0  0  0  0  0  0  0  0
    0.1880    0.2144   -1.1388 H   0  0  0  0  0  0  0  0  0  0  0  0
    1.0213   -0.1170    0.7699 C   0  0  0  0  0  0  0  0  0  0  0  0
    2.1985   -0.3138    0.9658 O   0  0  0  0  0  0  0  0  0  0  0  0
    0.2269    0.5785    1.5583 O   0  0  0  0  0  0  0  0  0  0  0  0
    0.8164    1.2493    2.6932 C   0  0  0  0  0  0  0  0  0  0  0  0
    1.3123    2.6283    2.2935 C   0  0  0  0  0  0  0  0  0  0  0  0
   -1.3914   -1.1920   -0.0243 S   0  0  0  0  0  0  0  0  0  0  0  0
   -2.3734    0.6954    0.0448 P   0  0  0  0  0  0  0  0  0  0  0  0
   -1.5916    2.1261   -1.0361 S   0  0  0  0  0  0  0  0  0  0  0  0
   -3.8776    0.2936   -0.3317 O   0  0  0  0  0  0  0  0  0  0  0  0
   -4.2641   -0.0796   -1.6593 C   0  0  0  0  0  0  0  0  0  0  0  0
   -2.5636    1.1056    1.5566 O   0  0  0  0  0  0  0  0  0  0  0  0
   -3.1195    0.1997    2.5290 C   0  0  0  0  0  0  0  0  0  0  0  0
    6.4814   -1.0727   -0.8916 H   0  0  0  0  0  0  0  0  0  0  0  0
    4.9793   -0.2825   -0.3842 H   0  0  0  0  0  0  0  0  0  0  0  0
    5.4169   -1.8522    0.2939 H   0  0  0  0  0  0  0  0  0  0  0  0
    5.1403   -2.9090   -1.9544 H   0  0  0  0  0  0  0  0  0  0  0  0
    4.7067   -1.3051   -2.6340 H   0  0  0  0  0  0  0  0  0  0  0  0
    1.1842   -2.6139   -0.4416 H   0  0  0  0  0  0  0  0  0  0  0  0
    0.5373   -2.0926   -2.0128 H   0  0  0  0  0  0  0  0  0  0  0  0
    0.0133    1.3116    3.4272 H   0  0  0  0  0  0  0  0  0  0  0  0
    1.6369    0.6313    3.0688 H   0  0  0  0  0  0  0  0  0  0  0  0
    1.7122    3.1370    3.1643 H   0  0  0  0  0  0  0  0  0  0  0  0
    2.0952    2.5417    1.5425 H   0  0  0  0  0  0  0  0  0  0  0  0
    0.4945    3.2121    1.8773 H   0  0  0  0  0  0  0  0  0  0  0  0
   -3.8265   -1.0425   -1.9215 H   0  0  0  0  0  0  0  0  0  0  0  0
   -3.9453    0.6820   -2.3722 H   0  0  0  0  0  0  0  0  0  0  0  0
   -5.3493   -0.1476   -1.6378 H   0  0  0  0  0  0  0  0  0  0  0  0
   -4.1569   -0.0191    2.2845 H   0  0  0  0  0  0  0  0  0  0  0  0
   -3.0490    0.7224    3.4792 H   0  0  0  0  0  0  0  0  0  0  0  0
   -2.5387   -0.7227    2.5499 H   0  0  0  0  0  0  0  0  0  0  0  0
  1  2  1  0  0  0  0
  2  3  1  0  0  0  0
  3  4  1  0  0  0  0
  4  5  2  0  0  0  0
  4  6  1  0  0  0  0
  6  7  1  0  0  0  0
  7  8  1  0  0  0  0
  7  9  1  0  0  0  0
  9 10  2  0  0  0  0
  9 11  1  0  0  0  0
 11 12  1  0  0  0  0
 12 13  1  0  0  0  0
  7 14  1  0  0  0  0
 14 15  1  0  0  0  0
 15 16  2  0  0  0  0
 15 17  1  0  0  0  0
 17 18  1  0  0  0  0
 15 19  2  0  0  0  0
 19 20  1  0  0  0  0
  1 21  1  0  0  0  0
  1 22  1  0  0  0  0
  1 23  1  0  0  0  0
  2 24  1  0  0  0  0
  2 25  1  0  0  0  0
  6 26  1  0  0  0  0
  6 27  1  0  0  0  0
 12 28  1  0  0  0  0
 12 29  1  0  0  0  0
 13 30  1  0  0  0  0
 13 31  1  0  0  0  0
 13 32  1  0  0  0  0
 18 33  1  0  0  0  0
 18 34  1  0  0  0  0
 18 35  1  0  0  0  0
 20 36  1  0  0  0  0
 20 37  1  0  0  0  0
 20 38  1  0  0  0  0
M  END
