8
 xtb: 6.7.1 (edcfbbe)
C           -0.76270710537941        0.00012945867685       -0.00001505848572
C            0.76266777986386       -0.00009251777638       -0.00006017902945
H           -1.15973199177002        0.39442151291400        0.94115267182586
H           -1.15976709683844        0.61821967173748       -0.81192839382288
H           -1.15997462742587       -1.01198396238993       -0.12927010915223
H            1.15994260801517        1.01201505417769        0.12922246277702
H            1.15969220782360       -0.39436107784084       -0.94123709495898
H            1.15972232823582       -0.61820239912437        0.81184044795647
