 xtb: 6.7.1 (edcfbbe)
          04092505203D

 41 40  0     0  0            999 V2000
    4.4649   -1.6269   -0.8421 C   0  0  0  0  0  0  0  0  0  0  0  0
    4.6122   -0.1389   -0.5994 C   0  0  0  0  0  0  0  0  0  0  0  0
    3.5146    0.4127    0.1502 O   0  0  0  0  0  0  0  0  0  0  0  0
    2.0291    0.4807   -0.4213 P   0  0  0  0  0  0  0  0  0  0  0  0
    1.8991    0.8880   -2.3272 S   0  0  0  0  0  0  0  0  0  0  0  0
    1.3826    1.5739    0.5132 O   0  0  0  0  0  0  0  0  0  0  0  0
    1.4976    1.5454    1.9571 C   0  0  0  0  0  0  0  0  0  0  0  0
    2.5767    2.4980    2.4276 C   0  0  0  0  0  0  0  0  0  0  0  0
    1.2189   -1.3881    0.2062 S   0  0  0  0  0  0  0  0  0  0  0  0
    0.0521   -1.7139   -1.1534 C   0  0  0  0  0  0  0  0  0  0  0  0
   -1.6340   -1.9908   -0.5782 S   0  0  0  0  0  0  0  0  0  0  0  0
   -2.0248   -0.0126    0.1040 P   0  0  0  0  0  0  0  0  0  0  0  0
   -1.4483    1.4411   -1.0762 S   0  0  0  0  0  0  0  0  0  0  0  0
   -1.3156    0.1318    1.5061 O   0  0  0  0  0  0  0  0  0  0  0  0
   -1.5612   -0.7732    2.6154 C   0  0  0  0  0  0  0  0  0  0  0  0
   -2.4890   -0.1303    3.6250 C   0  0  0  0  0  0  0  0  0  0  0  0
   -3.5561   -0.0848    0.5156 O   0  0  0  0  0  0  0  0  0  0  0  0
   -4.6115   -0.6109   -0.3114 C   0  0  0  0  0  0  0  0  0  0  0  0
   -4.6727    0.0467   -1.6736 C   0  0  0  0  0  0  0  0  0  0  0  0
    4.2710   -2.1480    0.0920 H   0  0  0  0  0  0  0  0  0  0  0  0
    3.6408   -1.8107   -1.5295 H   0  0  0  0  0  0  0  0  0  0  0  0
    5.3804   -2.0062   -1.2846 H   0  0  0  0  0  0  0  0  0  0  0  0
    4.6815    0.3992   -1.5496 H   0  0  0  0  0  0  0  0  0  0  0  0
    5.4834    0.0832    0.0186 H   0  0  0  0  0  0  0  0  0  0  0  0
    0.5107    1.8483    2.3130 H   0  0  0  0  0  0  0  0  0  0  0  0
    1.7067    0.5195    2.2741 H   0  0  0  0  0  0  0  0  0  0  0  0
    2.5854    2.5140    3.5129 H   0  0  0  0  0  0  0  0  0  0  0  0
    3.5486    2.1761    2.0633 H   0  0  0  0  0  0  0  0  0  0  0  0
    2.3754    3.4984    2.0539 H   0  0  0  0  0  0  0  0  0  0  0  0
    0.3552   -2.6325   -1.6493 H   0  0  0  0  0  0  0  0  0  0  0  0
    0.0779   -0.8650   -1.8430 H   0  0  0  0  0  0  0  0  0  0  0  0
   -1.9808   -1.7055    2.2278 H   0  0  0  0  0  0  0  0  0  0  0  0
   -0.5746   -0.9673    3.0407 H   0  0  0  0  0  0  0  0  0  0  0  0
   -2.0644    0.8026    3.9851 H   0  0  0  0  0  0  0  0  0  0  0  0
   -3.4529    0.0785    3.1685 H   0  0  0  0  0  0  0  0  0  0  0  0
   -2.6261   -0.8083    4.4614 H   0  0  0  0  0  0  0  0  0  0  0  0
   -4.4610   -1.6895   -0.4094 H   0  0  0  0  0  0  0  0  0  0  0  0
   -5.5149   -0.4116    0.2677 H   0  0  0  0  0  0  0  0  0  0  0  0
   -4.7601    1.1259   -1.5713 H   0  0  0  0  0  0  0  0  0  0  0  0
   -3.7656   -0.1690   -2.2369 H   0  0  0  0  0  0  0  0  0  0  0  0
   -5.5286   -0.3342   -2.2213 H   0  0  0  0  0  0  0  0  0  0  0  0
  1  2  1  0  0  0  0
  2  3  1  0  0  0  0
  3  4  2  0  0  0  0
  4  5  2  0  0  0  0
  4  6  2  0  0  0  0
  6  7  1  0  0  0  0
  7  8  1  0  0  0  0
  4  9  1  0  0  0  0
  9 10  1  0  0  0  0
 10 11  1  0  0  0  0
 11 12  1  0  0  0  0
 12 13  2  0  0  0  0
 12 14  2  0  0  0  0
 14 15  1  0  0  0  0
 15 16  1  0  0  0  0
 12 17  2  0  0  0  0
 17 18  1  0  0  0  0
 18 19  1  0  0  0  0
  1 20  1  0  0  0  0
  1 21  1  0  0  0  0
  1 22  1  0  0  0  0
  2 23  1  0  0  0  0
  2 24  1  0  0  0  0
  7 25  1  0  0  0  0
  7 26  1  0  0  0  0
  8 27  1  0  0  0  0
  8 28  1  0  0  0  0
  8 29  1  0  0  0  0
 10 30  1  0  0  0  0
 10 31  1  0  0  0  0
 15 32  1  0  0  0  0
 15 33  1  0  0  0  0
 16 34  1  0  0  0  0
 16 35  1  0  0  0  0
 16 36  1  0  0  0  0
 18 37  1  0  0  0  0
 18 38  1  0  0  0  0
 19 39  1  0  0  0  0
 19 40  1  0  0  0  0
 19 41  1  0  0  0  0
M  END
