 xtb: 6.7.1 (edcfbbe)
          04092505203D

 41 40  0     0  0            999 V2000
    2.8612    2.2117   -1.6476 C   0  0  0  0  0  0  0  0  0  0  0  0
    3.6099    1.8682   -0.3754 C   0  0  0  0  0  0  0  0  0  0  0  0
    3.4856    0.4756   -0.0469 O   0  0  0  0  0  0  0  0  0  0  0  0
    2.1476   -0.1322    0.5614 P   0  0  0  0  0  0  0  0  0  0  0  0
    1.3098    1.0208    1.9114 S   0  0  0  0  0  0  0  0  0  0  0  0
    2.6052   -1.5598    1.0694 O   0  0  0  0  0  0  0  0  0  0  0  0
    3.0540   -1.7793    2.4244 C   0  0  0  0  0  0  0  0  0  0  0  0
    4.3979   -1.1315    2.6810 C   0  0  0  0  0  0  0  0  0  0  0  0
    1.0794   -0.7325   -1.1676 S   0  0  0  0  0  0  0  0  0  0  0  0
   -0.0776   -1.9081   -0.4112 C   0  0  0  0  0  0  0  0  0  0  0  0
   -1.2963   -1.1368    0.6839 S   0  0  0  0  0  0  0  0  0  0  0  0
   -2.2587    0.0357   -0.8219 P   0  0  0  0  0  0  0  0  0  0  0  0
   -2.2792   -0.7324   -2.6180 S   0  0  0  0  0  0  0  0  0  0  0  0
   -1.5562    1.4478   -0.7750 O   0  0  0  0  0  0  0  0  0  0  0  0
   -1.6759    2.3474    0.3587 C   0  0  0  0  0  0  0  0  0  0  0  0
   -0.8017    3.5513    0.0830 C   0  0  0  0  0  0  0  0  0  0  0  0
   -3.6817    0.3611   -0.1910 O   0  0  0  0  0  0  0  0  0  0  0  0
   -4.8234   -0.4972   -0.3751 C   0  0  0  0  0  0  0  0  0  0  0  0
   -4.6532   -1.8390    0.3066 C   0  0  0  0  0  0  0  0  0  0  0  0
    3.0271    3.2551   -1.8962 H   0  0  0  0  0  0  0  0  0  0  0  0
    3.2031    1.5851   -2.4674 H   0  0  0  0  0  0  0  0  0  0  0  0
    1.7921    2.0443   -1.5131 H   0  0  0  0  0  0  0  0  0  0  0  0
    3.2363    2.4589    0.4686 H   0  0  0  0  0  0  0  0  0  0  0  0
    4.6838    2.0221   -0.4886 H   0  0  0  0  0  0  0  0  0  0  0  0
    2.2964   -1.3847    3.1092 H   0  0  0  0  0  0  0  0  0  0  0  0
    3.1048   -2.8655    2.5105 H   0  0  0  0  0  0  0  0  0  0  0  0
    4.7481   -1.4087    3.6704 H   0  0  0  0  0  0  0  0  0  0  0  0
    5.1194   -1.4559    1.9358 H   0  0  0  0  0  0  0  0  0  0  0  0
    4.3025   -0.0477    2.6299 H   0  0  0  0  0  0  0  0  0  0  0  0
    0.4683   -2.6384    0.1799 H   0  0  0  0  0  0  0  0  0  0  0  0
   -0.5953   -2.3783   -1.2478 H   0  0  0  0  0  0  0  0  0  0  0  0
   -2.7262    2.6251    0.4600 H   0  0  0  0  0  0  0  0  0  0  0  0
   -1.3508    1.8196    1.2603 H   0  0  0  0  0  0  0  0  0  0  0  0
    0.2444    3.2579    0.0679 H   0  0  0  0  0  0  0  0  0  0  0  0
   -1.0623    3.9906   -0.8755 H   0  0  0  0  0  0  0  0  0  0  0  0
   -0.9488    4.2811    0.8723 H   0  0  0  0  0  0  0  0  0  0  0  0
   -5.6464    0.0734    0.0577 H   0  0  0  0  0  0  0  0  0  0  0  0
   -4.9837   -0.6289   -1.4494 H   0  0  0  0  0  0  0  0  0  0  0  0
   -4.3726   -1.7025    1.3480 H   0  0  0  0  0  0  0  0  0  0  0  0
   -5.5881   -2.3875    0.2530 H   0  0  0  0  0  0  0  0  0  0  0  0
   -3.8774   -2.4156   -0.1947 H   0  0  0  0  0  0  0  0  0  0  0  0
  1  2  1  0  0  0  0
  2  3  1  0  0  0  0
  3  4  2  0  0  0  0
  4  5  2  0  0  0  0
  4  6  2  0  0  0  0
  6  7  1  0  0  0  0
  7  8  1  0  0  0  0
  4  9  1  0  0  0  0
  9 10  1  0  0  0  0
 10 11  1  0  0  0  0
 11 12  1  0  0  0  0
 12 13  2  0  0  0  0
 12 14  2  0  0  0  0
 14 15  1  0  0  0  0
 15 16  1  0  0  0  0
 12 17  2  0  0  0  0
 17 18  1  0  0  0  0
 18 19  1  0  0  0  0
  1 20  1  0  0  0  0
  1 21  1  0  0  0  0
  1 22  1  0  0  0  0
  2 23  1  0  0  0  0
  2 24  1  0  0  0  0
  7 25  1  0  0  0  0
  7 26  1  0  0  0  0
  8 27  1  0  0  0  0
  8 28  1  0  0  0  0
  8 29  1  0  0  0  0
 10 30  1  0  0  0  0
 10 31  1  0  0  0  0
 15 32  1  0  0  0  0
 15 33  1  0  0  0  0
 16 34  1  0  0  0  0
 16 35  1  0  0  0  0
 16 36  1  0  0  0  0
 18 37  1  0  0  0  0
 18 38  1  0  0  0  0
 19 39  1  0  0  0  0
 19 40  1  0  0  0  0
 19 41  1  0  0  0  0
M  END
