 xtb: 6.7.1 (edcfbbe)
          04092505213D

 41 40  0     0  0            999 V2000
    4.7568    1.3625    0.4488 C   0  0  0  0  0  0  0  0  0  0  0  0
    3.4203    1.6759   -0.1896 C   0  0  0  0  0  0  0  0  0  0  0  0
    2.7604    0.4802   -0.6548 O   0  0  0  0  0  0  0  0  0  0  0  0
    2.1640   -0.5894    0.3477 P   0  0  0  0  0  0  0  0  0  0  0  0
    1.5589    0.0767    2.0961 S   0  0  0  0  0  0  0  0  0  0  0  0
    3.3454   -1.6491    0.4567 O   0  0  0  0  0  0  0  0  0  0  0  0
    3.3670   -2.6701    1.4664 C   0  0  0  0  0  0  0  0  0  0  0  0
    2.2940   -3.7134    1.2299 C   0  0  0  0  0  0  0  0  0  0  0  0
    0.7788   -1.5333   -0.9490 S   0  0  0  0  0  0  0  0  0  0  0  0
    0.0650   -0.0745   -1.7716 C   0  0  0  0  0  0  0  0  0  0  0  0
   -0.4093    1.2639   -0.6513 S   0  0  0  0  0  0  0  0  0  0  0  0
   -2.4446    0.7467   -0.2822 P   0  0  0  0  0  0  0  0  0  0  0  0
   -3.2482   -0.5228   -1.5463 S   0  0  0  0  0  0  0  0  0  0  0  0
   -3.1280    2.1651   -0.1101 O   0  0  0  0  0  0  0  0  0  0  0  0
   -2.9779    3.2807   -1.0064 C   0  0  0  0  0  0  0  0  0  0  0  0
   -3.3060    2.9288   -2.4432 C   0  0  0  0  0  0  0  0  0  0  0  0
   -2.5531    0.3208    1.2381 O   0  0  0  0  0  0  0  0  0  0  0  0
   -2.9102   -0.9972    1.6876 C   0  0  0  0  0  0  0  0  0  0  0  0
   -1.7113   -1.9223    1.7331 C   0  0  0  0  0  0  0  0  0  0  0  0
    5.2654    2.2893    0.6948 H   0  0  0  0  0  0  0  0  0  0  0  0
    4.6041    0.7889    1.3623 H   0  0  0  0  0  0  0  0  0  0  0  0
    5.3708    0.7800   -0.2329 H   0  0  0  0  0  0  0  0  0  0  0  0
    3.5309    2.2812   -1.0901 H   0  0  0  0  0  0  0  0  0  0  0  0
    2.7582    2.1835    0.5194 H   0  0  0  0  0  0  0  0  0  0  0  0
    4.3690   -3.0948    1.3933 H   0  0  0  0  0  0  0  0  0  0  0  0
    3.2328   -2.1944    2.4438 H   0  0  0  0  0  0  0  0  0  0  0  0
    1.3084   -3.2572    1.3258 H   0  0  0  0  0  0  0  0  0  0  0  0
    2.3862   -4.1318    0.2310 H   0  0  0  0  0  0  0  0  0  0  0  0
    2.3891   -4.5057    1.9653 H   0  0  0  0  0  0  0  0  0  0  0  0
   -0.8228   -0.4367   -2.2963 H   0  0  0  0  0  0  0  0  0  0  0  0
    0.7981    0.3352   -2.4608 H   0  0  0  0  0  0  0  0  0  0  0  0
   -3.6740    4.0215   -0.6088 H   0  0  0  0  0  0  0  0  0  0  0  0
   -1.9538    3.6552   -0.9213 H   0  0  0  0  0  0  0  0  0  0  0  0
   -2.5827    2.2125   -2.8308 H   0  0  0  0  0  0  0  0  0  0  0  0
   -4.2972    2.4860   -2.5069 H   0  0  0  0  0  0  0  0  0  0  0  0
   -3.2744    3.8279   -3.0502 H   0  0  0  0  0  0  0  0  0  0  0  0
   -3.3229   -0.8307    2.6837 H   0  0  0  0  0  0  0  0  0  0  0  0
   -3.6838   -1.4007    1.0261 H   0  0  0  0  0  0  0  0  0  0  0  0
   -1.3727   -2.1484    0.7227 H   0  0  0  0  0  0  0  0  0  0  0  0
   -0.8987   -1.4531    2.2847 H   0  0  0  0  0  0  0  0  0  0  0  0
   -1.9897   -2.8481    2.2259 H   0  0  0  0  0  0  0  0  0  0  0  0
  1  2  1  0  0  0  0
  2  3  1  0  0  0  0
  3  4  2  0  0  0  0
  4  5  2  0  0  0  0
  4  6  2  0  0  0  0
  6  7  1  0  0  0  0
  7  8  1  0  0  0  0
  4  9  1  0  0  0  0
  9 10  1  0  0  0  0
 10 11  1  0  0  0  0
 11 12  1  0  0  0  0
 12 13  2  0  0  0  0
 12 14  2  0  0  0  0
 14 15  1  0  0  0  0
 15 16  1  0  0  0  0
 12 17  2  0  0  0  0
 17 18  1  0  0  0  0
 18 19  1  0  0  0  0
  1 20  1  0  0  0  0
  1 21  1  0  0  0  0
  1 22  1  0  0  0  0
  2 23  1  0  0  0  0
  2 24  1  0  0  0  0
  7 25  1  0  0  0  0
  7 26  1  0  0  0  0
  8 27  1  0  0  0  0
  8 28  1  0  0  0  0
  8 29  1  0  0  0  0
 10 30  1  0  0  0  0
 10 31  1  0  0  0  0
 15 32  1  0  0  0  0
 15 33  1  0  0  0  0
 16 34  1  0  0  0  0
 16 35  1  0  0  0  0
 16 36  1  0  0  0  0
 18 37  1  0  0  0  0
 18 38  1  0  0  0  0
 19 39  1  0  0  0  0
 19 40  1  0  0  0  0
 19 41  1  0  0  0  0
M  END
