 xtb: 6.7.1 (edcfbbe)
          04092509483D

 38 37  0     0  0            999 V2000
    5.8275   -1.5694   -0.4521 C   0  0  0  0  0  0  0  0  0  0  0  0
    4.8088   -0.9996   -1.4202 C   0  0  0  0  0  0  0  0  0  0  0  0
    3.5090   -1.5165   -1.0710 O   0  0  0  0  0  0  0  0  0  0  0  0
    2.4462   -0.8575   -1.4795 C   0  0  0  0  0  0  0  0  0  0  0  0
    2.4785    0.1613   -2.1343 O   0  0  0  0  0  0  0  0  0  0  0  0
    1.1652   -1.5471   -1.0477 C   0  0  0  0  0  0  0  0  0  0  0  0
    0.1957   -0.5226   -0.4725 C   0  0  0  0  0  0  0  0  0  0  0  0
    0.1103    0.3347   -1.1551 H   0  0  0  0  0  0  0  0  0  0  0  0
    0.6365    0.0399    0.8679 C   0  0  0  0  0  0  0  0  0  0  0  0
   -0.1420    0.2908    1.7625 O   0  0  0  0  0  0  0  0  0  0  0  0
    1.9347    0.2211    0.9046 O   0  0  0  0  0  0  0  0  0  0  0  0
    2.5338    0.8433    2.0630 C   0  0  0  0  0  0  0  0  0  0  0  0
    2.4594    2.3579    1.9681 C   0  0  0  0  0  0  0  0  0  0  0  0
   -1.4612   -1.2597   -0.2956 S   0  0  0  0  0  0  0  0  0  0  0  0
   -2.5827    0.4904    0.1217 P   0  0  0  0  0  0  0  0  0  0  0  0
   -1.8194    2.1878   -0.4787 S   0  0  0  0  0  0  0  0  0  0  0  0
   -3.9972    0.1238   -0.5447 O   0  0  0  0  0  0  0  0  0  0  0  0
   -4.1949    0.0684   -1.9617 C   0  0  0  0  0  0  0  0  0  0  0  0
   -3.0043    0.4955    1.6413 O   0  0  0  0  0  0  0  0  0  0  0  0
   -3.5823   -0.6606    2.2783 C   0  0  0  0  0  0  0  0  0  0  0  0
    6.8148   -1.2072   -0.7193 H   0  0  0  0  0  0  0  0  0  0  0  0
    5.5971   -1.2606    0.5632 H   0  0  0  0  0  0  0  0  0  0  0  0
    5.8188   -2.6540   -0.4986 H   0  0  0  0  0  0  0  0  0  0  0  0
    5.0232   -1.3027   -2.4493 H   0  0  0  0  0  0  0  0  0  0  0  0
    4.7682    0.0931   -1.3803 H   0  0  0  0  0  0  0  0  0  0  0  0
    1.3941   -2.3288   -0.3252 H   0  0  0  0  0  0  0  0  0  0  0  0
    0.7085   -1.9971   -1.9314 H   0  0  0  0  0  0  0  0  0  0  0  0
    2.0237    0.4808    2.9591 H   0  0  0  0  0  0  0  0  0  0  0  0
    3.5675    0.4962    2.0444 H   0  0  0  0  0  0  0  0  0  0  0  0
    2.9675    2.7973    2.8203 H   0  0  0  0  0  0  0  0  0  0  0  0
    2.9317    2.7014    1.0512 H   0  0  0  0  0  0  0  0  0  0  0  0
    1.4212    2.6846    1.9673 H   0  0  0  0  0  0  0  0  0  0  0  0
   -3.8604    0.9978   -2.4244 H   0  0  0  0  0  0  0  0  0  0  0  0
   -5.2660   -0.0601   -2.1008 H   0  0  0  0  0  0  0  0  0  0  0  0
   -3.6511   -0.7762   -2.3845 H   0  0  0  0  0  0  0  0  0  0  0  0
   -3.6766   -0.3886    3.3260 H   0  0  0  0  0  0  0  0  0  0  0  0
   -2.9172   -1.5166    2.1623 H   0  0  0  0  0  0  0  0  0  0  0  0
   -4.5550   -0.8776    1.8405 H   0  0  0  0  0  0  0  0  0  0  0  0
  1  2  1  0  0  0  0
  2  3  1  0  0  0  0
  3  4  1  0  0  0  0
  4  5  2  0  0  0  0
  4  6  1  0  0  0  0
  6  7  1  0  0  0  0
  7  8  1  0  0  0  0
  7  9  1  0  0  0  0
  9 10  2  0  0  0  0
  9 11  4  0  0  0  0
 11 12  1  0  0  0  0
 12 13  1  0  0  0  0
  7 14  1  0  0  0  0
 14 15  1  0  0  0  0
 15 16  2  0  0  0  0
 15 17  1  0  0  0  0
 17 18  1  0  0  0  0
 15 19  2  0  0  0  0
 19 20  1  0  0  0  0
  1 21  1  0  0  0  0
  1 22  1  0  0  0  0
  1 23  1  0  0  0  0
  2 24  1  0  0  0  0
  2 25  1  0  0  0  0
  6 26  1  0  0  0  0
  6 27  1  0  0  0  0
 12 28  1  0  0  0  0
 12 29  1  0  0  0  0
 13 30  1  0  0  0  0
 13 31  1  0  0  0  0
 13 32  1  0  0  0  0
 18 33  1  0  0  0  0
 18 34  1  0  0  0  0
 18 35  1  0  0  0  0
 20 36  1  0  0  0  0
 20 37  1  0  0  0  0
 20 38  1  0  0  0  0
M  END
