22
 xtb: 6.7.1 (edcfbbe)
C            2.42045675344033        1.15925098902990        0.00002708686013
C            1.27162142546112        1.92762892349131        0.00002023466317
C            0.00000390987898        1.29919228337202        0.00000419220567
C           -1.27161073213217        1.92763494121819       -0.00001041959944
C           -2.42044957935753        1.15926230535294       -0.00001937356133
C           -2.39083517070909       -0.25990073724030       -0.00000149811654
C           -1.17007552580133       -0.89588726340102        0.00001752120781
C            0.00000066277598       -0.11304143483391        0.00000229409315
C            1.17007317789097       -0.89589275794268       -0.00001704429690
C            2.39083579806861       -0.25991195864738        0.00000164768202
C            0.78112029427635       -2.35617414495890       -0.00011337365032
C           -0.78112960165413       -2.35617040631013        0.00011024759384
H            3.38623176110401        1.65652216231411        0.00004417672175
H            1.33778593890214        3.01196366662399        0.00002993505915
H           -1.33776977145234        3.01197000904546       -0.00001691532085
H           -3.38622229859810        1.65653796195401       -0.00003968267333
H           -3.32343548271255       -0.81660565360352        0.00000727236698
H            3.32343362882787       -0.81662107680576       -0.00001011945961
H            1.18299155852187       -2.87099032229328       -0.87889935679400
H            1.18328222333863       -2.87124806887283        0.87838462850240
H           -1.18329405865548       -2.87124013434377       -0.87838901843091
H           -1.18300315117790       -2.87098701654031        0.87889496223558
