 xtb: 6.7.1 (edcfbbe)
          04092507313D

 38 37  0     0  0            999 V2000
    5.8145   -1.4998   -0.4030 C   0  0  0  0  0  0  0  0  0  0  0  0
    4.8426   -1.0378   -1.4723 C   0  0  0  0  0  0  0  0  0  0  0  0
    3.5385   -1.5690   -1.1629 O   0  0  0  0  0  0  0  0  0  0  0  0
    2.4736   -0.8757   -1.5006 C   0  0  0  0  0  0  0  0  0  0  0  0
    2.4962    0.1908   -2.0750 O   0  0  0  0  0  0  0  0  0  0  0  0
    1.1984   -1.5924   -1.0914 C   0  0  0  0  0  0  0  0  0  0  0  0
    0.2007   -0.5741   -0.5604 C   0  0  0  0  0  0  0  0  0  0  0  0
    0.1196    0.2628   -1.2687 H   0  0  0  0  0  0  0  0  0  0  0  0
    0.6005    0.0286    0.7707 C   0  0  0  0  0  0  0  0  0  0  0  0
   -0.2227    0.3468    1.6058 O   0  0  0  0  0  0  0  0  0  0  0  0
    1.8935    0.1660    0.8958 O   0  0  0  0  0  0  0  0  0  0  0  0
    2.3968    0.8474    2.0667 C   0  0  0  0  0  0  0  0  0  0  0  0
    2.4007    2.3505    1.8475 C   0  0  0  0  0  0  0  0  0  0  0  0
   -1.4606   -1.2932   -0.3609 S   0  0  0  0  0  0  0  0  0  0  0  0
   -2.4918    0.4690    0.2404 P   0  0  0  0  0  0  0  0  0  0  0  0
   -1.7455    2.1888   -0.3255 S   0  0  0  0  0  0  0  0  0  0  0  0
   -3.9310    0.1852   -0.4222 O   0  0  0  0  0  0  0  0  0  0  0  0
   -4.1212    0.2202   -1.8385 C   0  0  0  0  0  0  0  0  0  0  0  0
   -2.9096    0.3840    1.7598 O   0  0  0  0  0  0  0  0  0  0  0  0
   -3.5721   -0.7701    2.3132 C   0  0  0  0  0  0  0  0  0  0  0  0
    6.8083   -1.1352   -0.6406 H   0  0  0  0  0  0  0  0  0  0  0  0
    5.5168   -1.1160    0.5685 H   0  0  0  0  0  0  0  0  0  0  0  0
    5.8305   -2.5846   -0.3613 H   0  0  0  0  0  0  0  0  0  0  0  0
    5.1277   -1.4173   -2.4576 H   0  0  0  0  0  0  0  0  0  0  0  0
    4.7700    0.0527   -1.5203 H   0  0  0  0  0  0  0  0  0  0  0  0
    1.4304   -2.3555   -0.3503 H   0  0  0  0  0  0  0  0  0  0  0  0
    0.7762   -2.0726   -1.9763 H   0  0  0  0  0  0  0  0  0  0  0  0
    1.7696    0.5789    2.9210 H   0  0  0  0  0  0  0  0  0  0  0  0
    3.4065    0.4571    2.1927 H   0  0  0  0  0  0  0  0  0  0  0  0
    2.8307    2.8407    2.7145 H   0  0  0  0  0  0  0  0  0  0  0  0
    2.9830    2.6001    0.9644 H   0  0  0  0  0  0  0  0  0  0  0  0
    1.3835    2.7117    1.7046 H   0  0  0  0  0  0  0  0  0  0  0  0
   -3.6670    1.1208   -2.2556 H   0  0  0  0  0  0  0  0  0  0  0  0
   -5.1974    0.2335   -1.9903 H   0  0  0  0  0  0  0  0  0  0  0  0
   -3.6788   -0.6659   -2.2937 H   0  0  0  0  0  0  0  0  0  0  0  0
   -3.6353   -0.5724    3.3800 H   0  0  0  0  0  0  0  0  0  0  0  0
   -2.9815   -1.6663    2.1219 H   0  0  0  0  0  0  0  0  0  0  0  0
   -4.5631   -0.8730    1.8749 H   0  0  0  0  0  0  0  0  0  0  0  0
  1  2  1  0  0  0  0
  2  3  1  0  0  0  0
  3  4  1  0  0  0  0
  4  5  2  0  0  0  0
  4  6  1  0  0  0  0
  6  7  1  0  0  0  0
  7  8  1  0  0  0  0
  7  9  1  0  0  0  0
  9 10  2  0  0  0  0
  9 11  4  0  0  0  0
 11 12  1  0  0  0  0
 12 13  1  0  0  0  0
  7 14  1  0  0  0  0
 14 15  1  0  0  0  0
 15 16  2  0  0  0  0
 15 17  1  0  0  0  0
 17 18  1  0  0  0  0
 15 19  2  0  0  0  0
 19 20  1  0  0  0  0
  1 21  1  0  0  0  0
  1 22  1  0  0  0  0
  1 23  1  0  0  0  0
  2 24  1  0  0  0  0
  2 25  1  0  0  0  0
  6 26  1  0  0  0  0
  6 27  1  0  0  0  0
 12 28  1  0  0  0  0
 12 29  1  0  0  0  0
 13 30  1  0  0  0  0
 13 31  1  0  0  0  0
 13 32  1  0  0  0  0
 18 33  1  0  0  0  0
 18 34  1  0  0  0  0
 18 35  1  0  0  0  0
 20 36  1  0  0  0  0
 20 37  1  0  0  0  0
 20 38  1  0  0  0  0
M  END
