 xtb: 6.7.1 (edcfbbe)
          04092505213D

 41 40  0     0  0            999 V2000
    2.5695   -2.0900   -3.1535 C   0  0  0  0  0  0  0  0  0  0  0  0
    1.8277   -1.3845   -2.0371 C   0  0  0  0  0  0  0  0  0  0  0  0
    2.8100   -0.8374   -1.1350 O   0  0  0  0  0  0  0  0  0  0  0  0
    2.4083    0.1288    0.0638 P   0  0  0  0  0  0  0  0  0  0  0  0
    1.3066    1.6654   -0.4379 S   0  0  0  0  0  0  0  0  0  0  0  0
    3.8157    0.5615    0.6072 O   0  0  0  0  0  0  0  0  0  0  0  0
    4.8273   -0.3837    1.0540 C   0  0  0  0  0  0  0  0  0  0  0  0
    4.9806   -0.3066    2.5593 C   0  0  0  0  0  0  0  0  0  0  0  0
    1.6130   -1.2037    1.5429 S   0  0  0  0  0  0  0  0  0  0  0  0
   -0.0748   -0.5927    1.6481 C   0  0  0  0  0  0  0  0  0  0  0  0
   -1.0276   -0.9840    0.1447 S   0  0  0  0  0  0  0  0  0  0  0  0
   -2.4789    0.5697    0.3025 P   0  0  0  0  0  0  0  0  0  0  0  0
   -1.9597    2.1330    1.3583 S   0  0  0  0  0  0  0  0  0  0  0  0
   -3.7535   -0.1096    0.9290 O   0  0  0  0  0  0  0  0  0  0  0  0
   -4.3942   -1.2816    0.3621 C   0  0  0  0  0  0  0  0  0  0  0  0
   -5.5653   -0.8848   -0.5128 C   0  0  0  0  0  0  0  0  0  0  0  0
   -2.9290    0.8262   -1.1972 O   0  0  0  0  0  0  0  0  0  0  0  0
   -2.0329    1.2999   -2.2239 C   0  0  0  0  0  0  0  0  0  0  0  0
   -1.7606    0.1843   -3.2148 C   0  0  0  0  0  0  0  0  0  0  0  0
    3.2108   -1.3865   -3.6764 H   0  0  0  0  0  0  0  0  0  0  0  0
    3.1816   -2.8894   -2.7468 H   0  0  0  0  0  0  0  0  0  0  0  0
    1.8496   -2.5069   -3.8497 H   0  0  0  0  0  0  0  0  0  0  0  0
    1.1879   -2.0753   -1.4788 H   0  0  0  0  0  0  0  0  0  0  0  0
    1.2156   -0.5605   -2.4165 H   0  0  0  0  0  0  0  0  0  0  0  0
    4.5470   -1.3877    0.7316 H   0  0  0  0  0  0  0  0  0  0  0  0
    5.7404   -0.0731    0.5441 H   0  0  0  0  0  0  0  0  0  0  0  0
    5.8021   -0.9470    2.8643 H   0  0  0  0  0  0  0  0  0  0  0  0
    5.1924    0.7159    2.8597 H   0  0  0  0  0  0  0  0  0  0  0  0
    4.0699   -0.6374    3.0526 H   0  0  0  0  0  0  0  0  0  0  0  0
   -0.0787    0.4935    1.7753 H   0  0  0  0  0  0  0  0  0  0  0  0
   -0.5254   -1.0921    2.5026 H   0  0  0  0  0  0  0  0  0  0  0  0
   -3.6508   -1.8527   -0.2014 H   0  0  0  0  0  0  0  0  0  0  0  0
   -4.7230   -1.8561    1.2298 H   0  0  0  0  0  0  0  0  0  0  0  0
   -5.2224   -0.2929   -1.3569 H   0  0  0  0  0  0  0  0  0  0  0  0
   -6.0560   -1.7820   -0.8770 H   0  0  0  0  0  0  0  0  0  0  0  0
   -6.2745   -0.2945    0.0609 H   0  0  0  0  0  0  0  0  0  0  0  0
   -2.5487    2.1376   -2.6971 H   0  0  0  0  0  0  0  0  0  0  0  0
   -1.1093    1.6666   -1.7656 H   0  0  0  0  0  0  0  0  0  0  0  0
   -1.2935   -0.6595   -2.7115 H   0  0  0  0  0  0  0  0  0  0  0  0
   -2.6905   -0.1462   -3.6682 H   0  0  0  0  0  0  0  0  0  0  0  0
   -1.0949    0.5537   -3.9881 H   0  0  0  0  0  0  0  0  0  0  0  0
  1  2  1  0  0  0  0
  2  3  1  0  0  0  0
  3  4  2  0  0  0  0
  4  5  2  0  0  0  0
  4  6  2  0  0  0  0
  6  7  1  0  0  0  0
  7  8  1  0  0  0  0
  4  9  1  0  0  0  0
  9 10  1  0  0  0  0
 10 11  1  0  0  0  0
 11 12  1  0  0  0  0
 12 13  2  0  0  0  0
 12 14  2  0  0  0  0
 14 15  1  0  0  0  0
 15 16  1  0  0  0  0
 12 17  2  0  0  0  0
 17 18  1  0  0  0  0
 18 19  1  0  0  0  0
  1 20  1  0  0  0  0
  1 21  1  0  0  0  0
  1 22  1  0  0  0  0
  2 23  1  0  0  0  0
  2 24  1  0  0  0  0
  7 25  1  0  0  0  0
  7 26  1  0  0  0  0
  8 27  1  0  0  0  0
  8 28  1  0  0  0  0
  8 29  1  0  0  0  0
 10 30  1  0  0  0  0
 10 31  1  0  0  0  0
 15 32  1  0  0  0  0
 15 33  1  0  0  0  0
 16 34  1  0  0  0  0
 16 35  1  0  0  0  0
 16 36  1  0  0  0  0
 18 37  1  0  0  0  0
 18 38  1  0  0  0  0
 19 39  1  0  0  0  0
 19 40  1  0  0  0  0
 19 41  1  0  0  0  0
M  END
