41
 xtb: 6.7.1 (edcfbbe)
C            5.91672288242006        0.27585568316491       -0.58005015215465
C            4.83487761622745       -0.75416670990166       -0.38349990068131
O            3.67723531862423       -0.11879276262631        0.27076999731226
P            2.27956399061181        0.07514959872176       -0.50464217993804
S            2.36483127300571        0.65932226042783       -2.35982481867527
O            1.49757444122522        1.02672494999680        0.52574841947004
C            1.71513383778232        2.48543093137475        0.47954731601254
C            0.97880805196220        3.08333409733853        1.64944973263589
S            1.39539951073565       -1.81191249329031       -0.14903644171291
C           -0.07059201675344       -1.78720401584036       -1.27314516911111
S           -1.67922641478409       -1.94723082334705       -0.41037859790263
P           -2.22372651806443        0.07631248786818       -0.03839428648348
S           -1.88914641682665        1.32030546774678       -1.49423686769651
O           -1.54547729857877        0.57305851028402        1.32093269686419
C           -1.20641480985270       -0.27059291844601        2.47992020836301
C           -2.42223609371577       -0.72003746440906        3.25004416384429
O           -3.75206730349394       -0.14839100334712        0.41188042800764
C           -4.80924515084124       -0.38555336731874       -0.58830689480816
C           -5.82074901434727        0.72714249590315       -0.49441680125698
H            6.20346126535005        0.72689444164819        0.37430570291969
H            6.79814051221027       -0.21085231659655       -1.01015351908699
H            5.58676979091164        1.06333204217457       -1.26353246841982
H            5.14465510629320       -1.55190183315511        0.29584918132859
H            4.51970870758951       -1.19814444342294       -1.33263752544688
H            2.79159430738422        2.67683391640191        0.53733351017823
H            1.33139521318174        2.85251740485037       -0.47672852697852
H           -0.09609149218246        2.89809432490211        1.57339506416203
H            1.34898870003620        2.67825459504639        2.59551861426716
H            1.14319568060135        4.16553206664413        1.64929670975775
H            0.00423463260658       -2.65998243264115       -1.92608222344325
H           -0.05831614641592       -0.87974903728547       -1.88780725304908
H           -0.60903439022253       -1.11427498374412        2.12274993625758
H           -0.56998208857222        0.38320632718979        3.07980473425597
H           -2.08108053005351       -1.21135808461906        4.16739326156998
H           -3.04894316214062        0.13169664717791        3.52923048698546
H           -3.02338403070580       -1.43780114979710        2.68548847445432
H           -4.36198618878204       -0.44165650288665       -1.58562454909334
H           -5.23957810856702       -1.35804100352382       -0.33587366300664
H           -5.37022036418702        1.68761165367819       -0.76131574188919
H           -6.64104207084926        0.52278750953164       -1.19018489866140
H           -6.23451428741623        0.79439131135401        0.51576072920493
