 xtb: 6.7.1 (edcfbbe)
          04092509473D

 38 37  0     0  0            999 V2000
    5.2189   -1.7149   -1.6518 C   0  0  0  0  0  0  0  0  0  0  0  0
    4.4795   -0.4492   -1.2464 C   0  0  0  0  0  0  0  0  0  0  0  0
    3.0518   -0.6459   -1.2714 O   0  0  0  0  0  0  0  0  0  0  0  0
    2.4846   -1.1875   -0.2064 C   0  0  0  0  0  0  0  0  0  0  0  0
    3.0839   -1.5258    0.7872 O   0  0  0  0  0  0  0  0  0  0  0  0
    0.9892   -1.3813   -0.3871 C   0  0  0  0  0  0  0  0  0  0  0  0
    0.3205   -0.1763   -1.0370 C   0  0  0  0  0  0  0  0  0  0  0  0
    0.7910    0.0320   -2.0042 H   0  0  0  0  0  0  0  0  0  0  0  0
    0.4111    1.0937   -0.2106 C   0  0  0  0  0  0  0  0  0  0  0  0
   -0.4534    1.9468   -0.2099 O   0  0  0  0  0  0  0  0  0  0  0  0
    1.5465    1.1693    0.4332 O   0  0  0  0  0  0  0  0  0  0  0  0
    1.8166    2.3382    1.2355 C   0  0  0  0  0  0  0  0  0  0  0  0
    3.2418    2.2249    1.7394 C   0  0  0  0  0  0  0  0  0  0  0  0
   -1.4275   -0.4944   -1.4520 S   0  0  0  0  0  0  0  0  0  0  0  0
   -2.4144   -0.0349    0.3691 P   0  0  0  0  0  0  0  0  0  0  0  0
   -1.4105   -0.2300    2.0387 S   0  0  0  0  0  0  0  0  0  0  0  0
   -3.1363    1.3631    0.2565 O   0  0  0  0  0  0  0  0  0  0  0  0
   -3.8797    1.7642   -0.9112 C   0  0  0  0  0  0  0  0  0  0  0  0
   -3.6938   -0.9973    0.2577 O   0  0  0  0  0  0  0  0  0  0  0  0
   -3.6084   -2.4203    0.3937 C   0  0  0  0  0  0  0  0  0  0  0  0
    4.9000   -2.0388   -2.6385 H   0  0  0  0  0  0  0  0  0  0  0  0
    6.2856   -1.5162   -1.6679 H   0  0  0  0  0  0  0  0  0  0  0  0
    5.0205   -2.5084   -0.9350 H   0  0  0  0  0  0  0  0  0  0  0  0
    4.6568    0.3582   -1.9571 H   0  0  0  0  0  0  0  0  0  0  0  0
    4.7694   -0.1421   -0.2377 H   0  0  0  0  0  0  0  0  0  0  0  0
    0.5595   -1.5857    0.5958 H   0  0  0  0  0  0  0  0  0  0  0  0
    0.8407   -2.2521   -1.0289 H   0  0  0  0  0  0  0  0  0  0  0  0
    1.6675    3.2246    0.6113 H   0  0  0  0  0  0  0  0  0  0  0  0
    1.0933    2.3619    2.0567 H   0  0  0  0  0  0  0  0  0  0  0  0
    3.9348    2.2195    0.9029 H   0  0  0  0  0  0  0  0  0  0  0  0
    3.4651    3.0679    2.3842 H   0  0  0  0  0  0  0  0  0  0  0  0
    3.3605    1.3012    2.3000 H   0  0  0  0  0  0  0  0  0  0  0  0
   -4.3398    2.7107   -0.6407 H   0  0  0  0  0  0  0  0  0  0  0  0
   -4.6349    1.0177   -1.1506 H   0  0  0  0  0  0  0  0  0  0  0  0
   -3.1952    1.8972   -1.7486 H   0  0  0  0  0  0  0  0  0  0  0  0
   -3.0994   -2.8484   -0.4693 H   0  0  0  0  0  0  0  0  0  0  0  0
   -4.6373   -2.7696    0.4420 H   0  0  0  0  0  0  0  0  0  0  0  0
   -3.0767   -2.6788    1.3104 H   0  0  0  0  0  0  0  0  0  0  0  0
  1  2  1  0  0  0  0
  2  3  1  0  0  0  0
  3  4  1  0  0  0  0
  4  5  2  0  0  0  0
  4  6  1  0  0  0  0
  6  7  1  0  0  0  0
  7  8  1  0  0  0  0
  7  9  1  0  0  0  0
  9 10  2  0  0  0  0
  9 11  4  0  0  0  0
 11 12  1  0  0  0  0
 12 13  1  0  0  0  0
  7 14  1  0  0  0  0
 14 15  1  0  0  0  0
 15 16  2  0  0  0  0
 15 17  2  0  0  0  0
 17 18  1  0  0  0  0
 15 19  1  0  0  0  0
 19 20  1  0  0  0  0
  1 21  1  0  0  0  0
  1 22  1  0  0  0  0
  1 23  1  0  0  0  0
  2 24  1  0  0  0  0
  2 25  1  0  0  0  0
  6 26  1  0  0  0  0
  6 27  1  0  0  0  0
 12 28  1  0  0  0  0
 12 29  1  0  0  0  0
 13 30  1  0  0  0  0
 13 31  1  0  0  0  0
 13 32  1  0  0  0  0
 18 33  1  0  0  0  0
 18 34  1  0  0  0  0
 18 35  1  0  0  0  0
 20 36  1  0  0  0  0
 20 37  1  0  0  0  0
 20 38  1  0  0  0  0
M  END
