 xtb: 6.7.1 (edcfbbe)
          04092505213D

 41 40  0     0  0            999 V2000
    1.5423    2.2357    2.1549 C   0  0  0  0  0  0  0  0  0  0  0  0
    2.4794    2.3045    0.9671 C   0  0  0  0  0  0  0  0  0  0  0  0
    3.2720    1.1143    0.8039 O   0  0  0  0  0  0  0  0  0  0  0  0
    2.7214   -0.3789    0.8036 P   0  0  0  0  0  0  0  0  0  0  0  0
    2.3097   -1.2167    2.5210 S   0  0  0  0  0  0  0  0  0  0  0  0
    3.9296   -1.1371    0.1366 O   0  0  0  0  0  0  0  0  0  0  0  0
    4.4931   -0.8065   -1.1575 C   0  0  0  0  0  0  0  0  0  0  0  0
    4.0967   -1.8503   -2.1832 C   0  0  0  0  0  0  0  0  0  0  0  0
    1.1364   -0.3410   -0.6481 S   0  0  0  0  0  0  0  0  0  0  0  0
   -0.1390   -1.2201    0.2895 C   0  0  0  0  0  0  0  0  0  0  0  0
   -1.4177   -0.1194    0.9357 S   0  0  0  0  0  0  0  0  0  0  0  0
   -2.4808    0.1096   -0.9025 P   0  0  0  0  0  0  0  0  0  0  0  0
   -2.5334   -1.4693   -2.0591 S   0  0  0  0  0  0  0  0  0  0  0  0
   -1.8153    1.3290   -1.6460 O   0  0  0  0  0  0  0  0  0  0  0  0
   -1.2936    2.5354   -1.0389 C   0  0  0  0  0  0  0  0  0  0  0  0
   -2.3170    3.2607   -0.1931 C   0  0  0  0  0  0  0  0  0  0  0  0
   -3.9027    0.6778   -0.4787 O   0  0  0  0  0  0  0  0  0  0  0  0
   -5.0125   -0.1768   -0.1567 C   0  0  0  0  0  0  0  0  0  0  0  0
   -4.7814   -0.9667    1.1156 C   0  0  0  0  0  0  0  0  0  0  0  0
    1.0405    3.1906    2.2747 H   0  0  0  0  0  0  0  0  0  0  0  0
    0.7924    1.4577    2.0112 H   0  0  0  0  0  0  0  0  0  0  0  0
    2.0976    2.0056    3.0611 H   0  0  0  0  0  0  0  0  0  0  0  0
    3.2239    3.0925    1.0934 H   0  0  0  0  0  0  0  0  0  0  0  0
    1.9246    2.4686    0.0384 H   0  0  0  0  0  0  0  0  0  0  0  0
    4.1596    0.1902   -1.4529 H   0  0  0  0  0  0  0  0  0  0  0  0
    5.5723   -0.8000   -0.9968 H   0  0  0  0  0  0  0  0  0  0  0  0
    3.0234   -1.8304   -2.3575 H   0  0  0  0  0  0  0  0  0  0  0  0
    4.6094   -1.6430   -3.1171 H   0  0  0  0  0  0  0  0  0  0  0  0
    4.3766   -2.8399   -1.8329 H   0  0  0  0  0  0  0  0  0  0  0  0
    0.3277   -1.7080    1.1482 H   0  0  0  0  0  0  0  0  0  0  0  0
   -0.6051   -1.9410   -0.3835 H   0  0  0  0  0  0  0  0  0  0  0  0
   -0.4205    2.2618   -0.4410 H   0  0  0  0  0  0  0  0  0  0  0  0
   -0.9815    3.1292   -1.8991 H   0  0  0  0  0  0  0  0  0  0  0  0
   -2.5788    2.6617    0.6769 H   0  0  0  0  0  0  0  0  0  0  0  0
   -1.8969    4.2050    0.1394 H   0  0  0  0  0  0  0  0  0  0  0  0
   -3.2168    3.4510   -0.7720 H   0  0  0  0  0  0  0  0  0  0  0  0
   -5.8508    0.5138   -0.0546 H   0  0  0  0  0  0  0  0  0  0  0  0
   -5.1870   -0.8514   -1.0009 H   0  0  0  0  0  0  0  0  0  0  0  0
   -3.9896   -1.6986    0.9625 H   0  0  0  0  0  0  0  0  0  0  0  0
   -4.4952   -0.3039    1.9283 H   0  0  0  0  0  0  0  0  0  0  0  0
   -5.6935   -1.4908    1.3826 H   0  0  0  0  0  0  0  0  0  0  0  0
  1  2  1  0  0  0  0
  2  3  1  0  0  0  0
  3  4  2  0  0  0  0
  4  5  2  0  0  0  0
  4  6  2  0  0  0  0
  6  7  1  0  0  0  0
  7  8  1  0  0  0  0
  4  9  1  0  0  0  0
  9 10  1  0  0  0  0
 10 11  1  0  0  0  0
 11 12  1  0  0  0  0
 12 13  2  0  0  0  0
 12 14  2  0  0  0  0
 14 15  1  0  0  0  0
 15 16  1  0  0  0  0
 12 17  2  0  0  0  0
 17 18  1  0  0  0  0
 18 19  1  0  0  0  0
  1 20  1  0  0  0  0
  1 21  1  0  0  0  0
  1 22  1  0  0  0  0
  2 23  1  0  0  0  0
  2 24  1  0  0  0  0
  7 25  1  0  0  0  0
  7 26  1  0  0  0  0
  8 27  1  0  0  0  0
  8 28  1  0  0  0  0
  8 29  1  0  0  0  0
 10 30  1  0  0  0  0
 10 31  1  0  0  0  0
 15 32  1  0  0  0  0
 15 33  1  0  0  0  0
 16 34  1  0  0  0  0
 16 35  1  0  0  0  0
 16 36  1  0  0  0  0
 18 37  1  0  0  0  0
 18 38  1  0  0  0  0
 19 39  1  0  0  0  0
 19 40  1  0  0  0  0
 19 41  1  0  0  0  0
M  END
