 xtb: 6.7.1 (edcfbbe)
          04092505213D

 41 40  0     0  0            999 V2000
    0.4832   -2.4930    1.3531 C   0  0  0  0  0  0  0  0  0  0  0  0
    1.7884   -1.8879    1.8282 C   0  0  0  0  0  0  0  0  0  0  0  0
    2.1349   -0.6972    1.1045 O   0  0  0  0  0  0  0  0  0  0  0  0
    2.4598   -0.7151   -0.4578 P   0  0  0  0  0  0  0  0  0  0  0  0
    3.3256   -2.3430   -1.1156 S   0  0  0  0  0  0  0  0  0  0  0  0
    3.2806    0.6346   -0.6263 O   0  0  0  0  0  0  0  0  0  0  0  0
    4.7193    0.6626   -0.5206 C   0  0  0  0  0  0  0  0  0  0  0  0
    5.1899    0.3687    0.8883 C   0  0  0  0  0  0  0  0  0  0  0  0
    0.6792   -0.1117   -1.4231 S   0  0  0  0  0  0  0  0  0  0  0  0
    0.3695    1.4258   -0.4987 C   0  0  0  0  0  0  0  0  0  0  0  0
   -0.4833    1.1670    1.0754 S   0  0  0  0  0  0  0  0  0  0  0  0
   -2.3839    0.7527    0.2601 P   0  0  0  0  0  0  0  0  0  0  0  0
   -2.8670    1.7689   -1.3528 S   0  0  0  0  0  0  0  0  0  0  0  0
   -3.3475    0.8884    1.5175 O   0  0  0  0  0  0  0  0  0  0  0  0
   -3.6293    2.1472    2.1621 C   0  0  0  0  0  0  0  0  0  0  0  0
   -4.8377    2.8231    1.5432 C   0  0  0  0  0  0  0  0  0  0  0  0
   -2.3669   -0.8186    0.0935 O   0  0  0  0  0  0  0  0  0  0  0  0
   -3.1078   -1.5320   -0.9201 C   0  0  0  0  0  0  0  0  0  0  0  0
   -2.2263   -2.6162   -1.5056 C   0  0  0  0  0  0  0  0  0  0  0  0
   -0.3309   -1.7770    1.4392 H   0  0  0  0  0  0  0  0  0  0  0  0
    0.5790   -2.7946    0.3095 H   0  0  0  0  0  0  0  0  0  0  0  0
    0.2531   -3.3681    1.9525 H   0  0  0  0  0  0  0  0  0  0  0  0
    2.6021   -2.6107    1.7095 H   0  0  0  0  0  0  0  0  0  0  0  0
    1.7274   -1.5565    2.8656 H   0  0  0  0  0  0  0  0  0  0  0  0
    5.1310   -0.0666   -1.2253 H   0  0  0  0  0  0  0  0  0  0  0  0
    4.9832    1.6731   -0.8354 H   0  0  0  0  0  0  0  0  0  0  0  0
    6.2643    0.5129    0.9448 H   0  0  0  0  0  0  0  0  0  0  0  0
    4.6973    1.0295    1.5969 H   0  0  0  0  0  0  0  0  0  0  0  0
    4.9583   -0.6634    1.1477 H   0  0  0  0  0  0  0  0  0  0  0  0
   -0.2610    2.0386   -1.1446 H   0  0  0  0  0  0  0  0  0  0  0  0
    1.3140    1.9149   -0.2829 H   0  0  0  0  0  0  0  0  0  0  0  0
   -3.8149    1.8800    3.2041 H   0  0  0  0  0  0  0  0  0  0  0  0
   -2.7451    2.7881    2.1022 H   0  0  0  0  0  0  0  0  0  0  0  0
   -5.0585    3.7330    2.0917 H   0  0  0  0  0  0  0  0  0  0  0  0
   -4.6408    3.0748    0.5035 H   0  0  0  0  0  0  0  0  0  0  0  0
   -5.6979    2.1607    1.5842 H   0  0  0  0  0  0  0  0  0  0  0  0
   -3.9878   -1.9547   -0.4310 H   0  0  0  0  0  0  0  0  0  0  0  0
   -3.4263   -0.8217   -1.6907 H   0  0  0  0  0  0  0  0  0  0  0  0
   -1.3513   -2.1762   -1.9786 H   0  0  0  0  0  0  0  0  0  0  0  0
   -1.9011   -3.2964   -0.7239 H   0  0  0  0  0  0  0  0  0  0  0  0
   -2.7922   -3.1679   -2.2492 H   0  0  0  0  0  0  0  0  0  0  0  0
  1  2  1  0  0  0  0
  2  3  1  0  0  0  0
  3  4  2  0  0  0  0
  4  5  2  0  0  0  0
  4  6  2  0  0  0  0
  6  7  1  0  0  0  0
  7  8  1  0  0  0  0
  4  9  1  0  0  0  0
  9 10  1  0  0  0  0
 10 11  1  0  0  0  0
 11 12  1  0  0  0  0
 12 13  2  0  0  0  0
 12 14  2  0  0  0  0
 14 15  1  0  0  0  0
 15 16  1  0  0  0  0
 12 17  2  0  0  0  0
 17 18  1  0  0  0  0
 18 19  1  0  0  0  0
  1 20  1  0  0  0  0
  1 21  1  0  0  0  0
  1 22  1  0  0  0  0
  2 23  1  0  0  0  0
  2 24  1  0  0  0  0
  7 25  1  0  0  0  0
  7 26  1  0  0  0  0
  8 27  1  0  0  0  0
  8 28  1  0  0  0  0
  8 29  1  0  0  0  0
 10 30  1  0  0  0  0
 10 31  1  0  0  0  0
 15 32  1  0  0  0  0
 15 33  1  0  0  0  0
 16 34  1  0  0  0  0
 16 35  1  0  0  0  0
 16 36  1  0  0  0  0
 18 37  1  0  0  0  0
 18 38  1  0  0  0  0
 19 39  1  0  0  0  0
 19 40  1  0  0  0  0
 19 41  1  0  0  0  0
M  END
