  26
 
 C         -2.7088383691       -1.2862222008        0.8794587999
 C         -2.5139813966       -0.3027427200       -0.2716923431
 C         -3.7502858741        0.5724004912       -0.4595590621
 C         -1.2954896505        0.5811654576       -0.0157612287
 O         -0.1187896924       -0.2398597457        0.0004988700
 C          1.0515067407        0.3712103404        0.1229689291
 O          1.1640039969        1.5747274221        0.2296807881
 C          2.2021416488       -0.6110708778        0.0683458379
 C          2.6456941270       -0.7153535658       -1.3958279961
 C          3.3466229540       -0.1419389098        0.9611495067
 H         -1.8088723702       -1.8778990832        1.0240307698
 H         -3.5363923011       -1.9566256176        0.6654305643
 H         -2.9252147301       -0.7506934863        1.8010312785
 H         -2.3264647878       -0.8672332013       -1.1903336863
 H         -3.6188950209        1.2533850704       -1.2964209912
 H         -3.9362432804        1.1594569871        0.4365995306
 H         -4.6199017347       -0.0491725042       -0.6519511323
 H         -1.1782298889        1.3399977639       -0.7968262388
 H         -1.3733791174        1.0963789348        0.9477534008
 H          1.8273689887       -1.5829941710        0.3983373364
 H          3.4646684866       -1.4238666537       -1.4796006994
 H          2.9825962397        0.2553617293       -1.7526098615
 H          1.8228336920       -1.0534541094       -2.0206871032
 H          4.2037269985       -0.7981761436        0.8447818850
 H          3.0424171858       -0.1402508921        2.0048118710
 H          3.6332014077        0.8708017903        0.6880909835
          26
        -33.45626263
 C         -2.2096062831        1.6341844567        0.0301845810
 C         -2.1523087345        0.1197492837        0.2139911001
 C         -3.5353510204       -0.5036528994        0.0496191466
 C         -1.1853690343       -0.5060983792       -0.7962925729
 O          0.1482189657       -0.0122472544       -0.6293482843
 C          0.9264691796       -0.5960200330        0.2681961880
 O          0.5808011947       -1.5448320257        0.9444021091
 C          2.3004029696        0.0377265397        0.3343415364
 C          3.0248268046       -0.1960770053       -0.9936029693
 C          2.1794350313        1.5311526917        0.6390265971
 H         -1.2147308122        2.0655239065        0.1093561368
 H         -2.8425370176        2.0816514921        0.7916338747
 H         -2.6165260697        1.8781743463       -0.9481264980
 H         -1.7741704229       -0.1074118623        1.2176203968
 H         -4.2248211145       -0.0729462468        0.7701195070
 H         -3.4943021608       -1.5778640892        0.2108047399
 H         -3.9172152009       -0.3160351991       -0.9508016564
 H         -1.1736855627       -1.5946410601       -0.6820434811
 H         -1.4600839973       -0.2350695041       -1.8165962481
 H          2.8404108596       -0.4651729541        1.1419842502
 H          4.0216999159        0.2328137953       -0.9459356203
 H          2.4753386799        0.2739136505       -1.8049593465
 H          3.1124264854       -1.2605164802       -1.1987461032
 H          3.1704276691        1.9678568615        0.7233848908
 H          1.6486406433        1.6894903352        1.5750005137
 H          1.6405105878        2.0321843566       -0.1605845803
