 xtb: 6.7.1 (edcfbbe)
          04092507313D

 38 37  0     0  0            999 V2000
    2.6326   -3.7377   -0.3098 C   0  0  0  0  0  0  0  0  0  0  0  0
    2.8318   -3.0408    1.0266 C   0  0  0  0  0  0  0  0  0  0  0  0
    2.8001   -1.6100    0.8577 O   0  0  0  0  0  0  0  0  0  0  0  0
    1.6455   -0.9901    0.9352 C   0  0  0  0  0  0  0  0  0  0  0  0
    0.5898   -1.5385    1.1907 O   0  0  0  0  0  0  0  0  0  0  0  0
    1.7828    0.4943    0.6756 C   0  0  0  0  0  0  0  0  0  0  0  0
    0.6104    0.9791   -0.1637 C   0  0  0  0  0  0  0  0  0  0  0  0
    0.4880    0.3617   -1.0638 H   0  0  0  0  0  0  0  0  0  0  0  0
    0.6852    2.4374   -0.5930 C   0  0  0  0  0  0  0  0  0  0  0  0
   -0.0310    2.8936   -1.4550 O   0  0  0  0  0  0  0  0  0  0  0  0
    1.5720    3.1149    0.0961 O   0  0  0  0  0  0  0  0  0  0  0  0
    1.7303    4.5211   -0.1884 C   0  0  0  0  0  0  0  0  0  0  0  0
    2.7114    4.7388   -1.3289 C   0  0  0  0  0  0  0  0  0  0  0  0
   -0.9786    0.8482    0.7464 S   0  0  0  0  0  0  0  0  0  0  0  0
   -1.7009   -0.9850   -0.0734 P   0  0  0  0  0  0  0  0  0  0  0  0
   -0.7255   -1.7900   -1.5661 S   0  0  0  0  0  0  0  0  0  0  0  0
   -2.0656   -1.9838    1.0871 O   0  0  0  0  0  0  0  0  0  0  0  0
   -2.7809   -1.5710    2.2674 C   0  0  0  0  0  0  0  0  0  0  0  0
   -3.1930   -0.5447   -0.5032 O   0  0  0  0  0  0  0  0  0  0  0  0
   -3.4061    0.3423   -1.6010 C   0  0  0  0  0  0  0  0  0  0  0  0
    2.6929   -4.8117   -0.1697 H   0  0  0  0  0  0  0  0  0  0  0  0
    1.6551   -3.4913   -0.7221 H   0  0  0  0  0  0  0  0  0  0  0  0
    3.3963   -3.4230   -1.0154 H   0  0  0  0  0  0  0  0  0  0  0  0
    3.8186   -3.2470    1.4413 H   0  0  0  0  0  0  0  0  0  0  0  0
    2.0486   -3.3279    1.7337 H   0  0  0  0  0  0  0  0  0  0  0  0
    2.7241    0.6758    0.1577 H   0  0  0  0  0  0  0  0  0  0  0  0
    1.7960    1.0214    1.6319 H   0  0  0  0  0  0  0  0  0  0  0  0
    0.7504    4.9382   -0.4351 H   0  0  0  0  0  0  0  0  0  0  0  0
    2.1031    4.9432    0.7446 H   0  0  0  0  0  0  0  0  0  0  0  0
    2.3224    4.3016   -2.2457 H   0  0  0  0  0  0  0  0  0  0  0  0
    2.8520    5.8039   -1.4801 H   0  0  0  0  0  0  0  0  0  0  0  0
    3.6685    4.2813   -1.0952 H   0  0  0  0  0  0  0  0  0  0  0  0
   -2.2152   -0.8000    2.7903 H   0  0  0  0  0  0  0  0  0  0  0  0
   -2.8595   -2.4685    2.8753 H   0  0  0  0  0  0  0  0  0  0  0  0
   -3.7660   -1.1965    1.9945 H   0  0  0  0  0  0  0  0  0  0  0  0
   -4.4843    0.4239   -1.7089 H   0  0  0  0  0  0  0  0  0  0  0  0
   -2.9605   -0.0699   -2.5080 H   0  0  0  0  0  0  0  0  0  0  0  0
   -2.9664    1.3193   -1.3917 H   0  0  0  0  0  0  0  0  0  0  0  0
  1  2  1  0  0  0  0
  2  3  1  0  0  0  0
  3  4  4  0  0  0  0
  4  5  2  0  0  0  0
  4  6  1  0  0  0  0
  6  7  1  0  0  0  0
  7  8  1  0  0  0  0
  7  9  1  0  0  0  0
  9 10  2  0  0  0  0
  9 11  4  0  0  0  0
 11 12  1  0  0  0  0
 12 13  1  0  0  0  0
  7 14  1  0  0  0  0
 14 15  1  0  0  0  0
 15 16  2  0  0  0  0
 15 17  2  0  0  0  0
 17 18  1  0  0  0  0
 15 19  1  0  0  0  0
 19 20  1  0  0  0  0
  1 21  1  0  0  0  0
  1 22  1  0  0  0  0
  1 23  1  0  0  0  0
  2 24  1  0  0  0  0
  2 25  1  0  0  0  0
  6 26  1  0  0  0  0
  6 27  1  0  0  0  0
 12 28  1  0  0  0  0
 12 29  1  0  0  0  0
 13 30  1  0  0  0  0
 13 31  1  0  0  0  0
 13 32  1  0  0  0  0
 18 33  1  0  0  0  0
 18 34  1  0  0  0  0
 18 35  1  0  0  0  0
 20 36  1  0  0  0  0
 20 37  1  0  0  0  0
 20 38  1  0  0  0  0
M  END
