 xtb: 6.7.1 (edcfbbe)
          04092505213D

 41 40  0     0  0            999 V2000
    3.4602   -0.5565   -3.0095 C   0  0  0  0  0  0  0  0  0  0  0  0
    4.2178   -0.5737   -1.6992 C   0  0  0  0  0  0  0  0  0  0  0  0
    3.5843    0.2151   -0.6724 O   0  0  0  0  0  0  0  0  0  0  0  0
    2.0562    0.1196   -0.2543 P   0  0  0  0  0  0  0  0  0  0  0  0
    0.7810    1.0662   -1.3990 S   0  0  0  0  0  0  0  0  0  0  0  0
    2.0464    0.7720    1.1776 O   0  0  0  0  0  0  0  0  0  0  0  0
    2.9100    0.3706    2.2692 C   0  0  0  0  0  0  0  0  0  0  0  0
    4.1019    1.2994    2.3733 C   0  0  0  0  0  0  0  0  0  0  0  0
    1.8317   -1.9839    0.0314 S   0  0  0  0  0  0  0  0  0  0  0  0
    0.1493   -2.0529    0.6914 C   0  0  0  0  0  0  0  0  0  0  0  0
   -1.1348   -1.6637   -0.5425 S   0  0  0  0  0  0  0  0  0  0  0  0
   -1.9925    0.0207    0.3963 P   0  0  0  0  0  0  0  0  0  0  0  0
   -1.0974    0.8187    1.9372 S   0  0  0  0  0  0  0  0  0  0  0  0
   -3.3875   -0.6833    0.7642 O   0  0  0  0  0  0  0  0  0  0  0  0
   -4.2705   -0.1552    1.7695 C   0  0  0  0  0  0  0  0  0  0  0  0
   -4.9711    1.1040    1.3000 C   0  0  0  0  0  0  0  0  0  0  0  0
   -2.3104    1.0791   -0.7351 O   0  0  0  0  0  0  0  0  0  0  0  0
   -2.8173    0.6863   -2.0341 C   0  0  0  0  0  0  0  0  0  0  0  0
   -3.6310    1.8375   -2.5865 C   0  0  0  0  0  0  0  0  0  0  0  0
    3.3083    0.4661   -3.3473 H   0  0  0  0  0  0  0  0  0  0  0  0
    4.0227   -1.1047   -3.7583 H   0  0  0  0  0  0  0  0  0  0  0  0
    2.4842   -1.0243   -2.8852 H   0  0  0  0  0  0  0  0  0  0  0  0
    5.2031   -0.1157   -1.8026 H   0  0  0  0  0  0  0  0  0  0  0  0
    4.3183   -1.5958   -1.3242 H   0  0  0  0  0  0  0  0  0  0  0  0
    2.2731    0.4362    3.1542 H   0  0  0  0  0  0  0  0  0  0  0  0
    3.2264   -0.6646    2.1121 H   0  0  0  0  0  0  0  0  0  0  0  0
    3.7630    2.3245    2.4959 H   0  0  0  0  0  0  0  0  0  0  0  0
    4.7002    1.0133    3.2326 H   0  0  0  0  0  0  0  0  0  0  0  0
    4.7078    1.2366    1.4732 H   0  0  0  0  0  0  0  0  0  0  0  0
    0.0508   -1.3547    1.5273 H   0  0  0  0  0  0  0  0  0  0  0  0
    0.0062   -3.0814    1.0121 H   0  0  0  0  0  0  0  0  0  0  0  0
   -4.9752   -0.9672    1.9543 H   0  0  0  0  0  0  0  0  0  0  0  0
   -3.6854    0.0436    2.6733 H   0  0  0  0  0  0  0  0  0  0  0  0
   -5.6561    1.4436    2.0706 H   0  0  0  0  0  0  0  0  0  0  0  0
   -4.2358    1.8860    1.1098 H   0  0  0  0  0  0  0  0  0  0  0  0
   -5.5259    0.9089    0.3856 H   0  0  0  0  0  0  0  0  0  0  0  0
   -1.9495    0.4737   -2.6645 H   0  0  0  0  0  0  0  0  0  0  0  0
   -3.4192   -0.2204   -1.9208 H   0  0  0  0  0  0  0  0  0  0  0  0
   -3.0117    2.7285   -2.6386 H   0  0  0  0  0  0  0  0  0  0  0  0
   -3.9766    1.5801   -3.5823 H   0  0  0  0  0  0  0  0  0  0  0  0
   -4.4861    2.0405   -1.9476 H   0  0  0  0  0  0  0  0  0  0  0  0
  1  2  1  0  0  0  0
  2  3  1  0  0  0  0
  3  4  2  0  0  0  0
  4  5  2  0  0  0  0
  4  6  2  0  0  0  0
  6  7  1  0  0  0  0
  7  8  1  0  0  0  0
  4  9  1  0  0  0  0
  9 10  1  0  0  0  0
 10 11  1  0  0  0  0
 11 12  1  0  0  0  0
 12 13  2  0  0  0  0
 12 14  1  0  0  0  0
 14 15  1  0  0  0  0
 15 16  1  0  0  0  0
 12 17  2  0  0  0  0
 17 18  1  0  0  0  0
 18 19  1  0  0  0  0
  1 20  1  0  0  0  0
  1 21  1  0  0  0  0
  1 22  1  0  0  0  0
  2 23  1  0  0  0  0
  2 24  1  0  0  0  0
  7 25  1  0  0  0  0
  7 26  1  0  0  0  0
  8 27  1  0  0  0  0
  8 28  1  0  0  0  0
  8 29  1  0  0  0  0
 10 30  1  0  0  0  0
 10 31  1  0  0  0  0
 15 32  1  0  0  0  0
 15 33  1  0  0  0  0
 16 34  1  0  0  0  0
 16 35  1  0  0  0  0
 16 36  1  0  0  0  0
 18 37  1  0  0  0  0
 18 38  1  0  0  0  0
 19 39  1  0  0  0  0
 19 40  1  0  0  0  0
 19 41  1  0  0  0  0
M  END
