 xtb: 6.7.1 (edcfbbe)
          04032520033D

 10  9  0     0  0            999 V2000
   -0.7024   -0.5886   -0.3053 C   0  0  0  0  0  0  0  0  0  0  0  0
    0.6944   -0.5835    0.3332 C   0  0  0  0  0  0  0  0  0  0  0  0
    1.5097    0.4728   -0.1310 O   0  0  0  0  0  0  0  0  0  0  0  0
   -1.5026    0.4995    0.1087 O   0  0  0  0  0  0  0  0  0  0  0  0
   -1.2295   -1.4886    0.0168 H   0  0  0  0  0  0  0  0  0  0  0  0
   -0.6034   -0.6033   -1.3962 H   0  0  0  0  0  0  0  0  0  0  0  0
    1.2088   -1.5048    0.0538 H   0  0  0  0  0  0  0  0  0  0  0  0
    0.5956   -0.5456    1.4235 H   0  0  0  0  0  0  0  0  0  0  0  0
    1.2217    1.3006    0.2773 H   0  0  0  0  0  0  0  0  0  0  0  0
   -1.2027    1.3033   -0.3374 H   0  0  0  0  0  0  0  0  0  0  0  0
  1  2  1  0  0  0  0
  2  3  1  0  0  0  0
  1  4  1  0  0  0  0
  1  5  1  0  0  0  0
  1  6  1  0  0  0  0
  2  7  1  0  0  0  0
  2  8  1  0  0  0  0
  3  9  1  0  0  0  0
  4 10  1  0  0  0  0
M  END
