17
 xtb: 6.7.1 (edcfbbe)
C            2.43323875735590        1.08951440747313       -0.00009262585112
C            1.15924875117865        0.29785270482854        0.00020261906980
C            1.19633796484345       -1.09725660405074        0.00022251198793
C            0.00000690573624       -1.80161215478715        0.00000419257167
C           -1.19632597337133       -1.09725989993406       -0.00014487934398
C           -1.15924085743121        0.29784964957871       -0.00005607382265
N            0.00000290016263        0.98182241463532        0.00008666089521
C           -2.43323351766580        1.08950707261657        0.00000302717995
H            3.03619389871352        0.85113263209155       -0.88293184000426
H            2.22759606314386        2.16108753512321        0.00447859284672
H            3.04115290546098        0.84424914355007        0.87739288343122
H            2.15054700730663       -1.61459851114957        0.00036737271585
H            0.00000820627600       -2.88735903332042       -0.00001850385896
H           -2.15053333048249       -1.61460489959218       -0.00026108342832
H           -3.03914978105147        0.84703102361414       -0.87965694307113
H           -3.03819333177500        0.84832113894137        0.88068612603993
H           -2.22758845806291        2.16108883922015       -0.00085053079048
