  19
 
 C         -3.0953539946        0.3658355063        0.0359042555
 C         -1.6303225156        0.0459390403        0.0295171448
 C         -1.1875031189       -1.2674366429       -0.0058034569
 C          0.1653904746       -1.5574342609       -0.0351048337
 C          1.1010770417       -0.5338644250       -0.0308452602
 C          0.6776905076        0.7993889898        0.0072548653
 C         -0.6808413789        1.0613323429        0.0360187284
 C          1.6981586016        1.8954091900        0.0119015648
 O          2.4448734910       -0.7781192328       -0.0587270792
 H         -3.4630520597        0.4483761298       -0.9869737918
 H         -3.6593094858       -0.4186320260        0.5344779446
 H         -3.2819229493        1.3112805064        0.5388114259
 H         -1.9030936741       -2.0763928937       -0.0093792981
 H          0.4942502440       -2.5869643242       -0.0605233929
 H         -1.0098363750        2.0903909148        0.0656907281
 H          2.2414082777        1.9024218023       -0.9326816336
 H          1.2271502504        2.8632693196        0.1588763513
 H          2.4267190753        1.7229640765        0.8028610744
 H          2.6101319447       -1.7316320197       -0.0824682366
          19
        -26.30151234
 C         -3.0830237324        0.4062596348        0.0013054994
 C         -1.6252493897        0.0548947655       -0.0010057874
 C         -1.1975186899       -1.2625472532       -0.0008312513
 C          0.1534134378       -1.5680288758       -0.0002787655
 C          1.0999726548       -0.5556808024        0.0002178597
 C          0.6912812457        0.7837037857       -0.0002337093
 C         -0.6634245868        1.0605669809       -0.0007827223
 C          1.7253128273        1.8669013258       -0.0000650155
 O          2.4414216414       -0.8140429206        0.0007374047
 H         -3.3349943732        0.9674434594        0.8999035046
 H         -3.3244582947        1.0285268877       -0.8587988694
 H         -3.6969768132       -0.4896132269       -0.0326153195
 H         -1.9206972431       -2.0648842190       -0.0010701171
 H          0.4706820126       -2.6015211238       -0.0002605756
 H         -0.9834802714        2.0929640899       -0.0011057276
 H          1.2593606453        2.8478356815       -0.0049332629
 H          2.3608266648        1.7746678939        0.8795582862
 H          2.3673768045        1.7688120205       -0.8742544801
 H          2.5970279864       -1.7695962778        0.0018185361
