 xtb: 6.7.1 (edcfbbe)
          04092507313D

 38 37  0     0  0            999 V2000
    1.8806   -3.5450   -2.3260 C   0  0  0  0  0  0  0  0  0  0  0  0
    3.1294   -2.9507   -1.6944 C   0  0  0  0  0  0  0  0  0  0  0  0
    2.8755   -1.6119   -1.2299 O   0  0  0  0  0  0  0  0  0  0  0  0
    2.3311   -1.4543   -0.0406 C   0  0  0  0  0  0  0  0  0  0  0  0
    2.1014   -2.3487    0.7413 O   0  0  0  0  0  0  0  0  0  0  0  0
    2.0205    0.0070    0.2368 C   0  0  0  0  0  0  0  0  0  0  0  0
    1.1171    0.5629   -0.8683 C   0  0  0  0  0  0  0  0  0  0  0  0
    1.6853    0.6943   -1.7911 H   0  0  0  0  0  0  0  0  0  0  0  0
    0.4928    1.8731   -0.4338 C   0  0  0  0  0  0  0  0  0  0  0  0
   -0.7092    1.9889   -0.2747 O   0  0  0  0  0  0  0  0  0  0  0  0
    1.3723    2.8093   -0.2449 O   0  0  0  0  0  0  0  0  0  0  0  0
    0.9249    4.0776    0.2897 C   0  0  0  0  0  0  0  0  0  0  0  0
    0.8539    4.0172    1.8064 C   0  0  0  0  0  0  0  0  0  0  0  0
   -0.2454   -0.5785   -1.2967 S   0  0  0  0  0  0  0  0  0  0  0  0
   -1.5678   -0.2574    0.3166 P   0  0  0  0  0  0  0  0  0  0  0  0
   -1.0648    0.3307    2.1303 S   0  0  0  0  0  0  0  0  0  0  0  0
   -2.9505    0.3378   -0.2203 O   0  0  0  0  0  0  0  0  0  0  0  0
   -3.4458    1.6567    0.0101 C   0  0  0  0  0  0  0  0  0  0  0  0
   -1.9648   -1.8157    0.3036 O   0  0  0  0  0  0  0  0  0  0  0  0
   -2.9181   -2.3528    1.2225 C   0  0  0  0  0  0  0  0  0  0  0  0
    2.1091   -4.5288   -2.7218 H   0  0  0  0  0  0  0  0  0  0  0  0
    1.0925   -3.6359   -1.5813 H   0  0  0  0  0  0  0  0  0  0  0  0
    1.5237   -2.9039   -3.1271 H   0  0  0  0  0  0  0  0  0  0  0  0
    3.9308   -2.8378   -2.4243 H   0  0  0  0  0  0  0  0  0  0  0  0
    3.4628   -3.5582   -0.8483 H   0  0  0  0  0  0  0  0  0  0  0  0
    2.9480    0.5801    0.2631 H   0  0  0  0  0  0  0  0  0  0  0  0
    1.5300    0.0639    1.2110 H   0  0  0  0  0  0  0  0  0  0  0  0
    1.6760    4.7905   -0.0488 H   0  0  0  0  0  0  0  0  0  0  0  0
   -0.0524    4.3130   -0.1380 H   0  0  0  0  0  0  0  0  0  0  0  0
    0.5215    4.9762    2.1891 H   0  0  0  0  0  0  0  0  0  0  0  0
    0.1501    3.2492    2.1238 H   0  0  0  0  0  0  0  0  0  0  0  0
    1.8301    3.7848    2.2219 H   0  0  0  0  0  0  0  0  0  0  0  0
   -3.0626    2.0412    0.9563 H   0  0  0  0  0  0  0  0  0  0  0  0
   -4.5292    1.5651    0.0444 H   0  0  0  0  0  0  0  0  0  0  0  0
   -3.1362    2.3081   -0.8041 H   0  0  0  0  0  0  0  0  0  0  0  0
   -3.9254   -2.0545    0.9331 H   0  0  0  0  0  0  0  0  0  0  0  0
   -2.7031   -2.0021    2.2345 H   0  0  0  0  0  0  0  0  0  0  0  0
   -2.8057   -3.4326    1.1665 H   0  0  0  0  0  0  0  0  0  0  0  0
  1  2  1  0  0  0  0
  2  3  1  0  0  0  0
  3  4  1  0  0  0  0
  4  5  2  0  0  0  0
  4  6  1  0  0  0  0
  6  7  1  0  0  0  0
  7  8  1  0  0  0  0
  7  9  1  0  0  0  0
  9 10  2  0  0  0  0
  9 11  4  0  0  0  0
 11 12  1  0  0  0  0
 12 13  1  0  0  0  0
  7 14  1  0  0  0  0
 14 15  1  0  0  0  0
 15 16  2  0  0  0  0
 15 17  2  0  0  0  0
 17 18  1  0  0  0  0
 15 19  1  0  0  0  0
 19 20  1  0  0  0  0
  1 21  1  0  0  0  0
  1 22  1  0  0  0  0
  1 23  1  0  0  0  0
  2 24  1  0  0  0  0
  2 25  1  0  0  0  0
  6 26  1  0  0  0  0
  6 27  1  0  0  0  0
 12 28  1  0  0  0  0
 12 29  1  0  0  0  0
 13 30  1  0  0  0  0
 13 31  1  0  0  0  0
 13 32  1  0  0  0  0
 18 33  1  0  0  0  0
 18 34  1  0  0  0  0
 18 35  1  0  0  0  0
 20 36  1  0  0  0  0
 20 37  1  0  0  0  0
 20 38  1  0  0  0  0
M  END
