 xtb: 6.7.1 (edcfbbe)
          04092505203D

 41 40  0     0  0            999 V2000
    4.1010   -1.3497   -2.5776 C   0  0  0  0  0  0  0  0  0  0  0  0
    4.1827    0.1062   -2.1675 C   0  0  0  0  0  0  0  0  0  0  0  0
    3.5951    0.3500   -0.8754 O   0  0  0  0  0  0  0  0  0  0  0  0
    2.0422    0.1757   -0.5838 P   0  0  0  0  0  0  0  0  0  0  0  0
    0.8426    0.7750   -2.0063 S   0  0  0  0  0  0  0  0  0  0  0  0
    1.8715    0.9943    0.7517 O   0  0  0  0  0  0  0  0  0  0  0  0
    2.7188    0.8208    1.9192 C   0  0  0  0  0  0  0  0  0  0  0  0
    1.9351    0.1737    3.0432 C   0  0  0  0  0  0  0  0  0  0  0  0
    1.8487   -1.8713   -0.0582 S   0  0  0  0  0  0  0  0  0  0  0  0
    0.0503   -1.9799   -0.2100 C   0  0  0  0  0  0  0  0  0  0  0  0
   -0.8467   -1.3715    1.2591 S   0  0  0  0  0  0  0  0  0  0  0  0
   -1.8501    0.3750    0.6210 P   0  0  0  0  0  0  0  0  0  0  0  0
   -1.0714    2.1660    0.7472 S   0  0  0  0  0  0  0  0  0  0  0  0
   -3.1231    0.3695    1.5694 O   0  0  0  0  0  0  0  0  0  0  0  0
   -3.8778   -0.7704    2.0425 C   0  0  0  0  0  0  0  0  0  0  0  0
   -4.5293   -1.5519    0.9210 C   0  0  0  0  0  0  0  0  0  0  0  0
   -2.2868   -0.0888   -0.8466 O   0  0  0  0  0  0  0  0  0  0  0  0
   -2.6347    0.8621   -1.8648 C   0  0  0  0  0  0  0  0  0  0  0  0
   -4.0066    1.4538   -1.6206 C   0  0  0  0  0  0  0  0  0  0  0  0
    4.4930   -1.9888   -1.7904 H   0  0  0  0  0  0  0  0  0  0  0  0
    3.0664   -1.6251   -2.7741 H   0  0  0  0  0  0  0  0  0  0  0  0
    4.6810   -1.4956   -3.4832 H   0  0  0  0  0  0  0  0  0  0  0  0
    3.6765    0.7422   -2.9000 H   0  0  0  0  0  0  0  0  0  0  0  0
    5.2158    0.4339   -2.0434 H   0  0  0  0  0  0  0  0  0  0  0  0
    3.5920    0.2269    1.6417 H   0  0  0  0  0  0  0  0  0  0  0  0
    3.0285    1.8327    2.1848 H   0  0  0  0  0  0  0  0  0  0  0  0
    1.0157    0.7293    3.2171 H   0  0  0  0  0  0  0  0  0  0  0  0
    1.6808   -0.8556    2.8002 H   0  0  0  0  0  0  0  0  0  0  0  0
    2.5361    0.1878    3.9467 H   0  0  0  0  0  0  0  0  0  0  0  0
   -0.1847   -3.0369   -0.2997 H   0  0  0  0  0  0  0  0  0  0  0  0
   -0.2726   -1.4178   -1.0869 H   0  0  0  0  0  0  0  0  0  0  0  0
   -3.2095   -1.4071    2.6268 H   0  0  0  0  0  0  0  0  0  0  0  0
   -4.6218   -0.3177    2.7003 H   0  0  0  0  0  0  0  0  0  0  0  0
   -3.7729   -1.9714    0.2615 H   0  0  0  0  0  0  0  0  0  0  0  0
   -5.1135   -2.3605    1.3493 H   0  0  0  0  0  0  0  0  0  0  0  0
   -5.1846   -0.9064    0.3423 H   0  0  0  0  0  0  0  0  0  0  0  0
   -1.8716    1.6472   -1.8892 H   0  0  0  0  0  0  0  0  0  0  0  0
   -2.5901    0.2909   -2.7934 H   0  0  0  0  0  0  0  0  0  0  0  0
   -4.0128    1.9747   -0.6631 H   0  0  0  0  0  0  0  0  0  0  0  0
   -4.2363    2.1624   -2.4100 H   0  0  0  0  0  0  0  0  0  0  0  0
   -4.7600    0.6709   -1.6078 H   0  0  0  0  0  0  0  0  0  0  0  0
  1  2  1  0  0  0  0
  2  3  1  0  0  0  0
  3  4  2  0  0  0  0
  4  5  2  0  0  0  0
  4  6  2  0  0  0  0
  6  7  1  0  0  0  0
  7  8  1  0  0  0  0
  4  9  1  0  0  0  0
  9 10  1  0  0  0  0
 10 11  1  0  0  0  0
 11 12  1  0  0  0  0
 12 13  2  0  0  0  0
 12 14  2  0  0  0  0
 14 15  1  0  0  0  0
 15 16  1  0  0  0  0
 12 17  1  0  0  0  0
 17 18  1  0  0  0  0
 18 19  1  0  0  0  0
  1 20  1  0  0  0  0
  1 21  1  0  0  0  0
  1 22  1  0  0  0  0
  2 23  1  0  0  0  0
  2 24  1  0  0  0  0
  7 25  1  0  0  0  0
  7 26  1  0  0  0  0
  8 27  1  0  0  0  0
  8 28  1  0  0  0  0
  8 29  1  0  0  0  0
 10 30  1  0  0  0  0
 10 31  1  0  0  0  0
 15 32  1  0  0  0  0
 15 33  1  0  0  0  0
 16 34  1  0  0  0  0
 16 35  1  0  0  0  0
 16 36  1  0  0  0  0
 18 37  1  0  0  0  0
 18 38  1  0  0  0  0
 19 39  1  0  0  0  0
 19 40  1  0  0  0  0
 19 41  1  0  0  0  0
M  END
