 xtb: 6.7.1 (edcfbbe)
          04092505213D

 41 40  0     0  0            999 V2000
    1.3324    3.2945    0.2818 C   0  0  0  0  0  0  0  0  0  0  0  0
    1.2497    2.0012    1.0659 C   0  0  0  0  0  0  0  0  0  0  0  0
    2.0675    1.0290    0.3839 O   0  0  0  0  0  0  0  0  0  0  0  0
    2.2685   -0.4217    0.9858 P   0  0  0  0  0  0  0  0  0  0  0  0
    2.7353   -0.5132    2.8843 S   0  0  0  0  0  0  0  0  0  0  0  0
    3.3696   -0.8896   -0.0538 O   0  0  0  0  0  0  0  0  0  0  0  0
    4.2912   -1.9484    0.2629 C   0  0  0  0  0  0  0  0  0  0  0  0
    3.6157   -3.3056    0.2615 C   0  0  0  0  0  0  0  0  0  0  0  0
    0.4969   -1.4858    0.4556 S   0  0  0  0  0  0  0  0  0  0  0  0
    0.4863   -1.0913   -1.3186 C   0  0  0  0  0  0  0  0  0  0  0  0
   -0.2437    0.5168   -1.7230 S   0  0  0  0  0  0  0  0  0  0  0  0
   -2.1668    0.1308   -0.9485 P   0  0  0  0  0  0  0  0  0  0  0  0
   -2.9074   -1.6531   -1.2338 S   0  0  0  0  0  0  0  0  0  0  0  0
   -3.0959    1.2541   -1.5666 O   0  0  0  0  0  0  0  0  0  0  0  0
   -2.8280    2.6740   -1.4358 C   0  0  0  0  0  0  0  0  0  0  0  0
   -2.1810    3.2171   -2.6938 C   0  0  0  0  0  0  0  0  0  0  0  0
   -1.9177    0.5487    0.5842 O   0  0  0  0  0  0  0  0  0  0  0  0
   -2.6836   -0.0263    1.6566 C   0  0  0  0  0  0  0  0  0  0  0  0
   -4.0941    0.5259    1.6830 C   0  0  0  0  0  0  0  0  0  0  0  0
    0.7302    4.0506    0.7747 H   0  0  0  0  0  0  0  0  0  0  0  0
    2.3636    3.6306    0.2319 H   0  0  0  0  0  0  0  0  0  0  0  0
    0.9652    3.1350   -0.7284 H   0  0  0  0  0  0  0  0  0  0  0  0
    0.2209    1.6296    1.1128 H   0  0  0  0  0  0  0  0  0  0  0  0
    1.6277    2.1167    2.0870 H   0  0  0  0  0  0  0  0  0  0  0  0
    5.0537   -1.8749   -0.5138 H   0  0  0  0  0  0  0  0  0  0  0  0
    4.7361   -1.7430    1.2416 H   0  0  0  0  0  0  0  0  0  0  0  0
    4.3594   -4.0763    0.4369 H   0  0  0  0  0  0  0  0  0  0  0  0
    2.8695   -3.3495    1.0546 H   0  0  0  0  0  0  0  0  0  0  0  0
    3.1271   -3.4903   -0.6919 H   0  0  0  0  0  0  0  0  0  0  0  0
   -0.1026   -1.8749   -1.7939 H   0  0  0  0  0  0  0  0  0  0  0  0
    1.5067   -1.0690   -1.6947 H   0  0  0  0  0  0  0  0  0  0  0  0
   -3.8109    3.1203   -1.2748 H   0  0  0  0  0  0  0  0  0  0  0  0
   -2.1973    2.8394   -0.5590 H   0  0  0  0  0  0  0  0  0  0  0  0
   -1.2018    2.7683   -2.8463 H   0  0  0  0  0  0  0  0  0  0  0  0
   -2.8036    2.9958   -3.5562 H   0  0  0  0  0  0  0  0  0  0  0  0
   -2.0695    4.2926   -2.5985 H   0  0  0  0  0  0  0  0  0  0  0  0
   -2.6927   -1.1140    1.5328 H   0  0  0  0  0  0  0  0  0  0  0  0
   -2.1250    0.2323    2.5580 H   0  0  0  0  0  0  0  0  0  0  0  0
   -4.6081    0.2603    0.7593 H   0  0  0  0  0  0  0  0  0  0  0  0
   -4.6325    0.0967    2.5220 H   0  0  0  0  0  0  0  0  0  0  0  0
   -4.0769    1.6082    1.7815 H   0  0  0  0  0  0  0  0  0  0  0  0
  1  2  1  0  0  0  0
  2  3  1  0  0  0  0
  3  4  2  0  0  0  0
  4  5  2  0  0  0  0
  4  6  2  0  0  0  0
  6  7  1  0  0  0  0
  7  8  1  0  0  0  0
  4  9  1  0  0  0  0
  9 10  1  0  0  0  0
 10 11  1  0  0  0  0
 11 12  1  0  0  0  0
 12 13  2  0  0  0  0
 12 14  2  0  0  0  0
 14 15  1  0  0  0  0
 15 16  1  0  0  0  0
 12 17  1  0  0  0  0
 17 18  1  0  0  0  0
 18 19  1  0  0  0  0
  1 20  1  0  0  0  0
  1 21  1  0  0  0  0
  1 22  1  0  0  0  0
  2 23  1  0  0  0  0
  2 24  1  0  0  0  0
  7 25  1  0  0  0  0
  7 26  1  0  0  0  0
  8 27  1  0  0  0  0
  8 28  1  0  0  0  0
  8 29  1  0  0  0  0
 10 30  1  0  0  0  0
 10 31  1  0  0  0  0
 15 32  1  0  0  0  0
 15 33  1  0  0  0  0
 16 34  1  0  0  0  0
 16 35  1  0  0  0  0
 16 36  1  0  0  0  0
 18 37  1  0  0  0  0
 18 38  1  0  0  0  0
 19 39  1  0  0  0  0
 19 40  1  0  0  0  0
 19 41  1  0  0  0  0
M  END
