 xtb: 6.7.1 (edcfbbe)
          04092505213D

 41 40  0     0  0            999 V2000
    5.5619   -1.0063    0.2565 C   0  0  0  0  0  0  0  0  0  0  0  0
    4.2482   -1.6212   -0.1804 C   0  0  0  0  0  0  0  0  0  0  0  0
    3.5414   -0.7490   -1.0976 O   0  0  0  0  0  0  0  0  0  0  0  0
    2.4684    0.3222   -0.6603 P   0  0  0  0  0  0  0  0  0  0  0  0
    1.7957    1.3061   -2.2083 S   0  0  0  0  0  0  0  0  0  0  0  0
    3.2283    1.1756    0.4444 O   0  0  0  0  0  0  0  0  0  0  0  0
    2.7937    2.4887    0.8418 C   0  0  0  0  0  0  0  0  0  0  0  0
    1.4562    2.4596    1.5516 C   0  0  0  0  0  0  0  0  0  0  0  0
    1.0433   -0.8123    0.4540 S   0  0  0  0  0  0  0  0  0  0  0  0
    0.0853   -1.3452   -1.0040 C   0  0  0  0  0  0  0  0  0  0  0  0
   -1.4891   -2.0769   -0.5268 S   0  0  0  0  0  0  0  0  0  0  0  0
   -2.3353   -0.3465    0.3458 P   0  0  0  0  0  0  0  0  0  0  0  0
   -1.8185    1.3957   -0.4088 S   0  0  0  0  0  0  0  0  0  0  0  0
   -1.9338   -0.5432    1.8636 O   0  0  0  0  0  0  0  0  0  0  0  0
   -1.8721    0.5478    2.8022 C   0  0  0  0  0  0  0  0  0  0  0  0
   -3.2596    1.0238    3.1779 C   0  0  0  0  0  0  0  0  0  0  0  0
   -3.8876   -0.6821    0.3981 O   0  0  0  0  0  0  0  0  0  0  0  0
   -4.6932   -1.1311   -0.7059 C   0  0  0  0  0  0  0  0  0  0  0  0
   -4.5730   -0.2406   -1.9255 C   0  0  0  0  0  0  0  0  0  0  0  0
    6.1639   -0.7586   -0.6134 H   0  0  0  0  0  0  0  0  0  0  0  0
    5.3843   -0.1008    0.8296 H   0  0  0  0  0  0  0  0  0  0  0  0
    6.0990   -1.7210    0.8724 H   0  0  0  0  0  0  0  0  0  0  0  0
    3.6024   -1.8287    0.6776 H   0  0  0  0  0  0  0  0  0  0  0  0
    4.4105   -2.5358   -0.7535 H   0  0  0  0  0  0  0  0  0  0  0  0
    3.5906    2.8378    1.5001 H   0  0  0  0  0  0  0  0  0  0  0  0
    2.7410    3.1206   -0.0499 H   0  0  0  0  0  0  0  0  0  0  0  0
    1.2410    3.4439    1.9550 H   0  0  0  0  0  0  0  0  0  0  0  0
    0.6672    2.1948    0.8472 H   0  0  0  0  0  0  0  0  0  0  0  0
    1.4726    1.7314    2.3594 H   0  0  0  0  0  0  0  0  0  0  0  0
    0.6347   -2.1116   -1.5466 H   0  0  0  0  0  0  0  0  0  0  0  0
   -0.0896   -0.4669   -1.6318 H   0  0  0  0  0  0  0  0  0  0  0  0
   -1.3355    0.1311    3.6552 H   0  0  0  0  0  0  0  0  0  0  0  0
   -1.2920    1.3620    2.3564 H   0  0  0  0  0  0  0  0  0  0  0  0
   -3.1851    1.8023    3.9305 H   0  0  0  0  0  0  0  0  0  0  0  0
   -3.7573    1.4256    2.2958 H   0  0  0  0  0  0  0  0  0  0  0  0
   -3.8487    0.1969    3.5647 H   0  0  0  0  0  0  0  0  0  0  0  0
   -4.3997   -2.1571   -0.9452 H   0  0  0  0  0  0  0  0  0  0  0  0
   -5.7079   -1.1202   -0.3035 H   0  0  0  0  0  0  0  0  0  0  0  0
   -5.2657   -0.5785   -2.6896 H   0  0  0  0  0  0  0  0  0  0  0  0
   -4.7981    0.7917   -1.6671 H   0  0  0  0  0  0  0  0  0  0  0  0
   -3.5598   -0.2819   -2.3244 H   0  0  0  0  0  0  0  0  0  0  0  0
  1  2  1  0  0  0  0
  2  3  1  0  0  0  0
  3  4  2  0  0  0  0
  4  5  2  0  0  0  0
  4  6  2  0  0  0  0
  6  7  1  0  0  0  0
  7  8  1  0  0  0  0
  4  9  1  0  0  0  0
  9 10  1  0  0  0  0
 10 11  1  0  0  0  0
 11 12  1  0  0  0  0
 12 13  2  0  0  0  0
 12 14  2  0  0  0  0
 14 15  1  0  0  0  0
 15 16  1  0  0  0  0
 12 17  2  0  0  0  0
 17 18  1  0  0  0  0
 18 19  1  0  0  0  0
  1 20  1  0  0  0  0
  1 21  1  0  0  0  0
  1 22  1  0  0  0  0
  2 23  1  0  0  0  0
  2 24  1  0  0  0  0
  7 25  1  0  0  0  0
  7 26  1  0  0  0  0
  8 27  1  0  0  0  0
  8 28  1  0  0  0  0
  8 29  1  0  0  0  0
 10 30  1  0  0  0  0
 10 31  1  0  0  0  0
 15 32  1  0  0  0  0
 15 33  1  0  0  0  0
 16 34  1  0  0  0  0
 16 35  1  0  0  0  0
 16 36  1  0  0  0  0
 18 37  1  0  0  0  0
 18 38  1  0  0  0  0
 19 39  1  0  0  0  0
 19 40  1  0  0  0  0
 19 41  1  0  0  0  0
M  END
