10
 xtb: 6.7.1 (edcfbbe)
C           -1.25982640707847       -0.26172494666002        0.00007833446325
C            0.01380654281536        0.57341437807881       -0.00005773820206
N            1.26500021315443       -0.21026087822362        0.00000481727373
H           -2.15072220566078        0.37698432396380        0.00004838584804
H           -1.30383766872041       -0.90371796503990       -0.88706120952701
H           -1.30376837887629       -0.90353397675195        0.88735363546399
H            0.02401314910777        1.22984105331014        0.87752281546418
H            0.02396244558475        1.22962358825102       -0.87779977259295
H            1.23671877161051       -0.83374589582855        0.80348388763079
H            1.23664259157307       -0.83400070307949       -0.80327332970192
