38
 xtb: 6.7.1 (edcfbbe)
C            4.68771271453563       -0.12613026159875       -1.04338155784087
C            3.90793382234142       -0.88803378643820       -2.08876501254957
O            2.55219924744383       -1.16027803047368       -1.60010635840585
C            2.38114533241786       -2.23037454114446       -0.81193181849971
O            3.24386198444622       -3.05304046179919       -0.56636463073751
C            0.97052144542107       -2.31340012205473       -0.27802106327044
C            0.28161557789883       -0.95384533228714       -0.21685173982999
H            0.03630461954472       -0.57629801068821       -1.21214612883930
C            1.12605054323687        0.05600569329355        0.53848660907010
O            1.90562161735968       -0.24845198872280        1.42352166539088
O            0.89800470851496        1.29814499356604        0.10792661285459
C            1.60800830296421        2.38328593707399        0.80011020875052
C            0.85256543749628        2.80452715792085        2.03722596168870
S           -1.31925544805174       -1.15955301363443        0.70273626325991
P           -2.55263758624866        0.34696666415085       -0.16436884788310
S           -2.27516666373160        0.71236759185390       -2.04825753681360
O           -3.99090827952274       -0.20527411930976        0.30671616044211
C           -4.62266295667962       -1.30724669310999       -0.40618762551011
O           -2.42682064265867        1.67514911409028        0.72449960324195
C           -2.64391769412268        1.64613336773658        2.16848971274166
H            4.17307516353905        0.80293405649508       -0.77933484799875
H            4.83067143468763       -0.72423883724748       -0.13908661188157
H            5.67242201234873        0.12828956744096       -1.44775793307183
H            4.38169727043912       -1.83440956858845       -2.35903338526675
H            3.74667265835597       -0.29248819081305       -2.98868909365362
H            1.02840284326875       -2.78677661614964        0.70510859501220
H            0.40566060153825       -2.98159581324641       -0.93779689760291
H            2.62155680095495        2.04447123844275        1.02613327655276
H            1.64805863950788        3.18127555064508        0.05714928249884
H           -0.14292214103083        3.17442387906937        1.77841717774964
H            0.75670345683972        1.97716331326365        2.74618213431327
H            1.40280260340276        3.61393773487601        2.52745372859284
H           -3.97288330805590       -2.18664050004075       -0.40700883729384
H           -4.85373505487749       -1.00153823586001       -1.42923487529161
H           -5.53966872340505       -1.52110635406514        0.14231208291204
H           -1.90615446412306        0.99618200835859        2.64632361622281
H           -3.65808039839417        1.30743769490667        2.38983354628197
H           -2.50952294680326        2.67433428909614        2.50267185645103
