41
 xtb: 6.7.1 (edcfbbe)
C            5.23758575864684       -2.59513690857213       -0.98567745496830
C            4.28932132024609       -1.49205244611994       -1.37622285176670
O            3.49658008075160       -1.15953819887457       -0.18246860399920
P            2.59475238691056        0.17178151442600       -0.11804713715925
S            3.42615266971373        1.87797849848777       -0.53817851287198
O            2.08331092965504        0.13192766764790        1.39776240570390
C            1.47508183105590       -1.07815087561280        1.98625696261648
C            2.42405301744497       -1.67240220269689        2.99532837575970
S            0.98418612108547       -0.40173344654508       -1.38724509869971
C            0.17461862077630        1.22238388955441       -1.66692586055327
S           -0.70443299336578        1.95691644391355       -0.23876860825553
P           -2.33544643214347        0.60679261365746       -0.07616508774451
S           -3.07944576890145       -0.02010826086129       -1.76628838269661
O           -3.21207689234222        1.57508663316481        0.85944415980588
C           -4.29466757146969        1.06526868990426        1.72152411091447
C           -5.60050014663545        0.97042926549052        0.97240040655973
O           -1.84897050328210       -0.54641307798300        0.93656938960895
C           -1.95420170098615       -1.98421144525632        0.65960759805989
C           -3.25547838050823       -2.53156995841883        1.18914084031237
H            5.82882697184322       -2.87953292972526       -1.86141132815811
H            5.92126197073614       -2.26275878396603       -0.19947223753403
H            4.69126119140827       -3.47626071226891       -0.63745854947576
H            3.60043236779914       -1.80809863475525       -2.16579922901380
H            4.82232361636677       -0.59183081987839       -1.69830605146047
H            0.54914811223799       -0.73042671727883        2.44978890388789
H            1.22817220623914       -1.78819871674922        1.19176801992897
H            1.94101755117365       -2.53367770776217        3.46833917512285
H            3.34705482224391       -2.01207288253496        2.51760748998506
H            2.66986354961926       -0.94564017907254        3.77459018379534
H           -0.53035707340899        1.06407313912896       -2.48860059232454
H            0.92744966693520        1.95702075844652       -1.96727630188004
H           -3.98657724420890        0.10320807408020        2.14016974041994
H           -4.34651418535250        1.79955825333929        2.52810218835042
H           -5.86196490874525        1.93188420313892        0.52056956696135
H           -5.56337226826228        0.20665033191420        0.19133340650266
H           -6.38854981254619        0.69930840091473        1.68304203285054
H           -1.84950960374525       -2.14577802098574       -0.41652450882734
H           -1.09363495595985       -2.41979583260002        1.17186969118883
H           -3.27997142170189       -3.61198345069739        1.01204917069154
H           -3.34651117223372       -2.35780098694869        2.26509604040927
H           -4.11197919340223       -2.08004354479666        0.67895219994298
