 xtb: 6.7.1 (edcfbbe)
          04092505213D

 41 40  0     0  0            999 V2000
    3.3822   -1.8675   -2.5400 C   0  0  0  0  0  0  0  0  0  0  0  0
    4.0927   -0.5894   -2.1434 C   0  0  0  0  0  0  0  0  0  0  0  0
    3.7314   -0.1390   -0.8264 O   0  0  0  0  0  0  0  0  0  0  0  0
    2.2537    0.3185   -0.4219 P   0  0  0  0  0  0  0  0  0  0  0  0
    1.3381    1.3585   -1.7987 S   0  0  0  0  0  0  0  0  0  0  0  0
    2.5657    1.1393    0.8827 O   0  0  0  0  0  0  0  0  0  0  0  0
    3.2165    0.5662    2.0441 C   0  0  0  0  0  0  0  0  0  0  0  0
    2.8546    1.4177    3.2422 C   0  0  0  0  0  0  0  0  0  0  0  0
    1.3190   -1.4907    0.2138 S   0  0  0  0  0  0  0  0  0  0  0  0
   -0.1264   -1.5019   -0.8997 C   0  0  0  0  0  0  0  0  0  0  0  0
   -1.7173   -1.7300   -0.0645 S   0  0  0  0  0  0  0  0  0  0  0  0
   -2.1186    0.1998    0.7417 P   0  0  0  0  0  0  0  0  0  0  0  0
   -0.5508    1.1993    1.3634 S   0  0  0  0  0  0  0  0  0  0  0  0
   -3.1274   -0.0656    1.9150 O   0  0  0  0  0  0  0  0  0  0  0  0
   -4.5420   -0.3576    1.7735 C   0  0  0  0  0  0  0  0  0  0  0  0
   -4.7997   -1.6459    1.0229 C   0  0  0  0  0  0  0  0  0  0  0  0
   -3.0357    0.9790   -0.3057 O   0  0  0  0  0  0  0  0  0  0  0  0
   -2.5349    1.5856   -1.5090 C   0  0  0  0  0  0  0  0  0  0  0  0
   -2.8000    0.6987   -2.7106 C   0  0  0  0  0  0  0  0  0  0  0  0
    3.5030   -2.6238   -1.7686 H   0  0  0  0  0  0  0  0  0  0  0  0
    2.3212   -1.6701   -2.6845 H   0  0  0  0  0  0  0  0  0  0  0  0
    3.8012   -2.2322   -3.4722 H   0  0  0  0  0  0  0  0  0  0  0  0
    3.8658    0.2121   -2.8532 H   0  0  0  0  0  0  0  0  0  0  0  0
    5.1723   -0.7318   -2.0777 H   0  0  0  0  0  0  0  0  0  0  0  0
    2.8664   -0.4631    2.1695 H   0  0  0  0  0  0  0  0  0  0  0  0
    4.2917    0.5637    1.8533 H   0  0  0  0  0  0  0  0  0  0  0  0
    3.2086    2.4344    3.0986 H   0  0  0  0  0  0  0  0  0  0  0  0
    1.7736    1.4424    3.3599 H   0  0  0  0  0  0  0  0  0  0  0  0
    3.3072    0.9955    4.1333 H   0  0  0  0  0  0  0  0  0  0  0  0
   -0.0347   -2.3676   -1.5513 H   0  0  0  0  0  0  0  0  0  0  0  0
   -0.1177   -0.5688   -1.4699 H   0  0  0  0  0  0  0  0  0  0  0  0
   -4.8821   -0.4191    2.8085 H   0  0  0  0  0  0  0  0  0  0  0  0
   -5.0150    0.4902    1.2751 H   0  0  0  0  0  0  0  0  0  0  0  0
   -4.2464   -2.4656    1.4741 H   0  0  0  0  0  0  0  0  0  0  0  0
   -5.8617   -1.8687    1.0588 H   0  0  0  0  0  0  0  0  0  0  0  0
   -4.4938   -1.5482   -0.0164 H   0  0  0  0  0  0  0  0  0  0  0  0
   -3.0750    2.5308   -1.5927 H   0  0  0  0  0  0  0  0  0  0  0  0
   -1.4670    1.8017   -1.3952 H   0  0  0  0  0  0  0  0  0  0  0  0
   -2.4166    1.1905   -3.5988 H   0  0  0  0  0  0  0  0  0  0  0  0
   -2.3035   -0.2622   -2.5999 H   0  0  0  0  0  0  0  0  0  0  0  0
   -3.8675    0.5313   -2.8211 H   0  0  0  0  0  0  0  0  0  0  0  0
  1  2  1  0  0  0  0
  2  3  1  0  0  0  0
  3  4  2  0  0  0  0
  4  5  2  0  0  0  0
  4  6  2  0  0  0  0
  6  7  1  0  0  0  0
  7  8  1  0  0  0  0
  4  9  1  0  0  0  0
  9 10  1  0  0  0  0
 10 11  1  0  0  0  0
 11 12  1  0  0  0  0
 12 13  2  0  0  0  0
 12 14  2  0  0  0  0
 14 15  1  0  0  0  0
 15 16  1  0  0  0  0
 12 17  2  0  0  0  0
 17 18  1  0  0  0  0
 18 19  1  0  0  0  0
  1 20  1  0  0  0  0
  1 21  1  0  0  0  0
  1 22  1  0  0  0  0
  2 23  1  0  0  0  0
  2 24  1  0  0  0  0
  7 25  1  0  0  0  0
  7 26  1  0  0  0  0
  8 27  1  0  0  0  0
  8 28  1  0  0  0  0
  8 29  1  0  0  0  0
 10 30  1  0  0  0  0
 10 31  1  0  0  0  0
 15 32  1  0  0  0  0
 15 33  1  0  0  0  0
 16 34  1  0  0  0  0
 16 35  1  0  0  0  0
 16 36  1  0  0  0  0
 18 37  1  0  0  0  0
 18 38  1  0  0  0  0
 19 39  1  0  0  0  0
 19 40  1  0  0  0  0
 19 41  1  0  0  0  0
M  END
