 xtb: 6.7.1 (edcfbbe)
          04092505203D

 41 40  0     0  0            999 V2000
    4.3712   -1.6084   -1.1405 C   0  0  0  0  0  0  0  0  0  0  0  0
    4.6245   -0.1243   -0.9668 C   0  0  0  0  0  0  0  0  0  0  0  0
    3.6583    0.5021   -0.1084 O   0  0  0  0  0  0  0  0  0  0  0  0
    2.1141    0.6199   -0.4860 P   0  0  0  0  0  0  0  0  0  0  0  0
    1.8038    0.9799   -2.3836 S   0  0  0  0  0  0  0  0  0  0  0  0
    1.6658    1.8071    0.4482 O   0  0  0  0  0  0  0  0  0  0  0  0
    1.3686    1.7244    1.8592 C   0  0  0  0  0  0  0  0  0  0  0  0
    2.5304    1.1965    2.6720 C   0  0  0  0  0  0  0  0  0  0  0  0
    1.2544   -1.1602    0.3192 S   0  0  0  0  0  0  0  0  0  0  0  0
    0.2201   -1.6822   -1.0843 C   0  0  0  0  0  0  0  0  0  0  0  0
   -1.4533   -2.1333   -0.5744 S   0  0  0  0  0  0  0  0  0  0  0  0
   -2.0457   -0.2898    0.2853 P   0  0  0  0  0  0  0  0  0  0  0  0
   -1.3874    1.3293   -0.6260 S   0  0  0  0  0  0  0  0  0  0  0  0
   -1.5800   -0.4805    1.7885 O   0  0  0  0  0  0  0  0  0  0  0  0
   -2.3693   -0.1371    2.9514 C   0  0  0  0  0  0  0  0  0  0  0  0
   -2.5666    1.3596    3.0776 C   0  0  0  0  0  0  0  0  0  0  0  0
   -3.6240   -0.3965    0.4071 O   0  0  0  0  0  0  0  0  0  0  0  0
   -4.5056    0.0277   -0.6474 C   0  0  0  0  0  0  0  0  0  0  0  0
   -4.4273   -0.8794   -1.8577 C   0  0  0  0  0  0  0  0  0  0  0  0
    4.2728   -2.0936   -0.1728 H   0  0  0  0  0  0  0  0  0  0  0  0
    3.4557   -1.7610   -1.7106 H   0  0  0  0  0  0  0  0  0  0  0  0
    5.1997   -2.0507   -1.6841 H   0  0  0  0  0  0  0  0  0  0  0  0
    4.6036    0.3827   -1.9366 H   0  0  0  0  0  0  0  0  0  0  0  0
    5.5757    0.0668   -0.4681 H   0  0  0  0  0  0  0  0  0  0  0  0
    1.1210    2.7551    2.1193 H   0  0  0  0  0  0  0  0  0  0  0  0
    0.4850    1.0908    1.9826 H   0  0  0  0  0  0  0  0  0  0  0  0
    2.2807    1.2526    3.7271 H   0  0  0  0  0  0  0  0  0  0  0  0
    2.7303    0.1592    2.4081 H   0  0  0  0  0  0  0  0  0  0  0  0
    3.4215    1.7876    2.4780 H   0  0  0  0  0  0  0  0  0  0  0  0
    0.6465   -2.5808   -1.5236 H   0  0  0  0  0  0  0  0  0  0  0  0
    0.1908   -0.8650   -1.8113 H   0  0  0  0  0  0  0  0  0  0  0  0
   -3.3279   -0.6538    2.8830 H   0  0  0  0  0  0  0  0  0  0  0  0
   -1.7851   -0.5398    3.7801 H   0  0  0  0  0  0  0  0  0  0  0  0
   -1.6093    1.8677    3.1640 H   0  0  0  0  0  0  0  0  0  0  0  0
   -3.0805    1.7425    2.1964 H   0  0  0  0  0  0  0  0  0  0  0  0
   -3.1654    1.5713    3.9579 H   0  0  0  0  0  0  0  0  0  0  0  0
   -5.4940    0.0005   -0.1866 H   0  0  0  0  0  0  0  0  0  0  0  0
   -4.2480    1.0562   -0.9206 H   0  0  0  0  0  0  0  0  0  0  0  0
   -3.4583   -0.7713   -2.3430 H   0  0  0  0  0  0  0  0  0  0  0  0
   -4.5566   -1.9173   -1.5620 H   0  0  0  0  0  0  0  0  0  0  0  0
   -5.2046   -0.6039   -2.5633 H   0  0  0  0  0  0  0  0  0  0  0  0
  1  2  1  0  0  0  0
  2  3  1  0  0  0  0
  3  4  2  0  0  0  0
  4  5  2  0  0  0  0
  4  6  2  0  0  0  0
  6  7  1  0  0  0  0
  7  8  1  0  0  0  0
  4  9  1  0  0  0  0
  9 10  1  0  0  0  0
 10 11  1  0  0  0  0
 11 12  1  0  0  0  0
 12 13  2  0  0  0  0
 12 14  2  0  0  0  0
 14 15  1  0  0  0  0
 15 16  1  0  0  0  0
 12 17  2  0  0  0  0
 17 18  1  0  0  0  0
 18 19  1  0  0  0  0
  1 20  1  0  0  0  0
  1 21  1  0  0  0  0
  1 22  1  0  0  0  0
  2 23  1  0  0  0  0
  2 24  1  0  0  0  0
  7 25  1  0  0  0  0
  7 26  1  0  0  0  0
  8 27  1  0  0  0  0
  8 28  1  0  0  0  0
  8 29  1  0  0  0  0
 10 30  1  0  0  0  0
 10 31  1  0  0  0  0
 15 32  1  0  0  0  0
 15 33  1  0  0  0  0
 16 34  1  0  0  0  0
 16 35  1  0  0  0  0
 16 36  1  0  0  0  0
 18 37  1  0  0  0  0
 18 38  1  0  0  0  0
 19 39  1  0  0  0  0
 19 40  1  0  0  0  0
 19 41  1  0  0  0  0
M  END
