41
 xtb: 6.7.1 (edcfbbe)
C            5.00371758641844       -1.64817142871422       -0.47077384236871
C            4.84349848644924       -0.21674340442065       -0.02394286096737
O            3.52362793514658        0.02931095023876        0.57398771750029
P            2.19180720187721        0.25659347432539       -0.30425072815563
S            2.41904079011285        0.97939523572445       -2.09859561324739
O            1.28396799629461        1.10722566845794        0.71005321778599
C            1.27350022002603        2.57728451356471        0.69377249639455
C            2.54514112182181        3.15198432299833        1.26857431347486
S            1.31915107819658       -1.66710393705287       -0.15628182946051
C           -0.07281404066084       -1.54737754605305       -1.36585931463830
S           -1.71857013344621       -1.90910380011987       -0.64624855355693
P           -2.33464377748281        0.02708711463383        0.00154077458545
S           -1.99354620551823        1.47376378600421       -1.25004741569871
O           -1.63271548108021        0.34286302758758        1.40829859793521
C           -1.77615596285025       -0.55612379368044        2.56554167782712
C           -0.61314089233095       -0.29474320644319        3.48700875570023
O           -3.83727220034011       -0.28644562997558        0.47770127724955
C           -4.88213134901008       -0.94082051357866       -0.32751564297367
C           -5.29226743651414       -0.14264959094770       -1.53854793299237
H            4.33667366195171       -1.88734830924305       -1.30386464574118
H            6.03538417116559       -1.79423261301318       -0.80740166873120
H            4.80875756576072       -2.34069120005478        0.35329779121521
H            4.98325710441965        0.48905004619389       -0.84807235968817
H            5.53742813030603        0.03306596701662        0.78114147579988
H            1.09853620350425        2.90762197621272       -0.33447617493352
H            0.40254633120606        2.83068126754684        1.30179265780008
H            3.41025783648280        2.92878144631256        0.63656282006564
H            2.44105517409282        4.24022528632070        1.32983602509229
H            2.72984472729180        2.76538106885394        2.27500435657917
H            0.08873487260626       -2.31422292087014       -2.12682597882481
H           -0.07551981067286       -0.56316462573454       -1.84730711983175
H           -2.73518207314061       -0.32929351409062        3.03921396898530
H           -1.78344837944612       -1.59273642864490        2.21272682524551
H           -0.73392902197357       -0.90413325643267        4.38804053338945
H            0.33410977117242       -0.56377525803994        3.01137525134643
H           -0.57861238369601        0.75725423482607        3.78480870451180
H           -4.53284878846315       -1.94183019056119       -0.59820615774947
H           -5.70680965545479       -1.04234101564163        0.38045196310996
H           -4.49487584660078       -0.09304577250962       -2.28384157745702
H           -6.15594051196998       -0.63954267036742       -1.99280579293585
H           -5.58565919521741        0.87334167264938       -1.26019867279626
