  31
 
 C         -4.0926509424        2.0066961476        0.5020055863
 O         -3.3794356347        0.8532943133        0.9657357272
 P         -2.7260505672       -0.1400625027       -0.0977303013
 S         -3.9270330356       -0.8871664352       -1.4514756667
 O         -2.1540188383       -1.1550478301        0.9783063318
 C         -1.9422750044       -2.5417359412        0.6930506908
 S         -1.1200100786        0.9953444898       -0.8896636902
 C         -0.1973643008        1.3093327850        0.6812930775
 N          1.1938497429        1.0291638689        0.4964980896
 C          1.6040905924       -0.2715701906        0.2312747956
 O          0.7888129190       -1.1839987265        0.1979524567
 C          3.0353118862       -0.3883629951        0.0144960304
 C          3.6488712065       -1.6119501689       -0.2582532665
 C          5.0102194494       -1.6565522698       -0.4651332995
 C          5.7758266930       -0.4899480273       -0.4044575407
 C          5.1890803581        0.7263662574       -0.1367180225
 C          3.8075987001        0.7901363037        0.0757440312
 N          3.2201590903        2.0032461444        0.3371813861
 N          2.0018774820        2.1029813642        0.5239057869
 H         -4.4457054169        2.5097520421        1.3980603309
 H         -4.9331674261        1.6994094541       -0.1217698810
 H         -3.4325217726        2.6582540647       -0.0725813032
 H         -2.1929397599       -3.0773060167        1.6055301656
 H         -0.8959737186       -2.6928591436        0.4314320325
 H         -2.5878931351       -2.8654721446       -0.1260810246
 H         -0.6292790275        0.6548609063        1.4405022446
 H         -0.2948407180        2.3627620826        0.9352316581
 H          3.0348321344       -2.4982873220       -0.3007694705
 H          5.4887228083       -2.5994750219       -0.6762871977
 H          6.8399253011       -0.5459667537       -0.5703539265
 H          5.7602986074        1.6380268130       -0.0858527323
          31
        -57.62030477
 C         -2.2237811199       -2.1597749968       -1.8626500893
 O         -1.9877197633       -1.8197847525       -0.4838565271
 P         -2.3356789096       -0.3928633949        0.1025611935
 S         -2.2736436750       -0.1891306727        2.0508380954
 O         -3.8590505570       -0.3069354775       -0.4288857905
 C         -4.6981071873        0.7982224954       -0.0938415055
 S         -1.4776284716        1.1581390601       -1.0913178236
 C         -0.3809308488        1.9115382078        0.1552049179
 N          0.9483955821        1.3793923441        0.0819202053
 C          1.1287320650        0.0180757629        0.2252921537
 O          0.1601414869       -0.7230422788        0.3929964735
 C          2.5130654466       -0.4012419391        0.1403131183
 C          2.9023200664       -1.7341855752        0.2824369133
 C          4.2371881212       -2.0612260792        0.1878373556
 C          5.1959475965       -1.0725499099       -0.0491339155
 C          4.8310873549        0.2470461525       -0.1930176566
 C          3.4797675959        0.5992162874       -0.0993128990
 N          3.1102376623        1.9118967831       -0.2477955872
 N          1.9282364856        2.2654771315       -0.1643344612
 H         -1.7861230456       -3.1471279296       -1.9874195401
 H         -1.7351969217       -1.4375625919       -2.5175176851
 H         -3.2938871494       -2.1797873154       -2.0623363282
 H         -4.3872635438        1.6832020091       -0.6496334410
 H         -4.6472448302        0.9955054166        0.9785889834
 H         -5.7044660510        0.5015870685       -0.3775498699
 H         -0.8242490843        1.6991380493        1.1360316595
 H         -0.3352574860        2.9794621734       -0.0483295898
 H          2.1396579410       -2.4752058490        0.4672637779
 H          4.5448279763       -3.0887880671        0.2974688664
 H          6.2351654456       -1.3510786193       -0.1204654803
 H          5.5541288708        1.0240872822       -0.3758681595
