8
 xtb: 6.7.1 (edcfbbe)
C           -0.00206817433152       -1.81749153246732        0.16880506968446
C           -0.00061324751210       -0.44842608732157       -0.44514531784062
Cl           1.48245325945326        0.48540900403734        0.05314213311398
Cl          -1.48183311323622        0.48853442504803        0.05276294347306
H           -0.89051193987693       -2.35867123532300       -0.16902498282170
H            0.88535760935968       -2.36050307479442       -0.16877542804624
H           -0.00216107198250       -1.76668526133628        1.25961799682628
H           -0.00045573222539       -0.45664134142240       -1.53465055777490
