 xtb: 6.7.1 (edcfbbe)
          04092505213D

 41 40  0     0  0            999 V2000
    3.3405    2.4131   -1.2938 C   0  0  0  0  0  0  0  0  0  0  0  0
    4.0211    1.7988   -0.0878 C   0  0  0  0  0  0  0  0  0  0  0  0
    3.7347    0.3946    0.0183 O   0  0  0  0  0  0  0  0  0  0  0  0
    2.3531   -0.1535    0.5786 P   0  0  0  0  0  0  0  0  0  0  0  0
    1.6472    0.8567    2.1084 S   0  0  0  0  0  0  0  0  0  0  0  0
    2.6738   -1.6809    0.8566 O   0  0  0  0  0  0  0  0  0  0  0  0
    3.1354   -2.1374    2.1460 C   0  0  0  0  0  0  0  0  0  0  0  0
    4.5388   -1.6539    2.4438 C   0  0  0  0  0  0  0  0  0  0  0  0
    1.1611   -0.3854   -1.1575 S   0  0  0  0  0  0  0  0  0  0  0  0
   -0.1078   -1.4733   -0.4493 C   0  0  0  0  0  0  0  0  0  0  0  0
   -1.2800   -0.6316    0.6367 S   0  0  0  0  0  0  0  0  0  0  0  0
   -2.6078    0.0588   -0.8894 P   0  0  0  0  0  0  0  0  0  0  0  0
   -2.7208   -1.0794   -2.4758 S   0  0  0  0  0  0  0  0  0  0  0  0
   -2.1691    1.5057   -1.3309 O   0  0  0  0  0  0  0  0  0  0  0  0
   -2.0660    2.6530   -0.4510 C   0  0  0  0  0  0  0  0  0  0  0  0
   -0.6130    3.0433   -0.2745 C   0  0  0  0  0  0  0  0  0  0  0  0
   -3.9375    0.3743   -0.0777 O   0  0  0  0  0  0  0  0  0  0  0  0
   -4.5867   -0.5217    0.8438 C   0  0  0  0  0  0  0  0  0  0  0  0
   -4.8894   -1.8732    0.2320 C   0  0  0  0  0  0  0  0  0  0  0  0
    3.6255    3.4567   -1.3781 H   0  0  0  0  0  0  0  0  0  0  0  0
    3.6272    1.8841   -2.1989 H   0  0  0  0  0  0  0  0  0  0  0  0
    2.2594    2.3469   -1.1815 H   0  0  0  0  0  0  0  0  0  0  0  0
    3.6959    2.2913    0.8351 H   0  0  0  0  0  0  0  0  0  0  0  0
    5.1077    1.8455   -0.1714 H   0  0  0  0  0  0  0  0  0  0  0  0
    2.4348   -1.7849    2.9101 H   0  0  0  0  0  0  0  0  0  0  0  0
    3.0894   -3.2247    2.0705 H   0  0  0  0  0  0  0  0  0  0  0  0
    4.5398   -0.5714    2.5632 H   0  0  0  0  0  0  0  0  0  0  0  0
    4.8890   -2.1109    3.3641 H   0  0  0  0  0  0  0  0  0  0  0  0
    5.2076   -1.9187    1.6291 H   0  0  0  0  0  0  0  0  0  0  0  0
    0.3718   -2.2559    0.1321 H   0  0  0  0  0  0  0  0  0  0  0  0
   -0.6569   -1.8887   -1.2982 H   0  0  0  0  0  0  0  0  0  0  0  0
   -2.6279    3.4413   -0.9548 H   0  0  0  0  0  0  0  0  0  0  0  0
   -2.5364    2.4211    0.5064 H   0  0  0  0  0  0  0  0  0  0  0  0
   -0.1432    3.1621   -1.2476 H   0  0  0  0  0  0  0  0  0  0  0  0
   -0.5573    3.9804    0.2699 H   0  0  0  0  0  0  0  0  0  0  0  0
   -0.0759    2.2838    0.2906 H   0  0  0  0  0  0  0  0  0  0  0  0
   -3.9464   -0.6290    1.7239 H   0  0  0  0  0  0  0  0  0  0  0  0
   -5.5017    0.0089    1.1130 H   0  0  0  0  0  0  0  0  0  0  0  0
   -5.4535   -2.4711    0.9404 H   0  0  0  0  0  0  0  0  0  0  0  0
   -5.4671   -1.7549   -0.6816 H   0  0  0  0  0  0  0  0  0  0  0  0
   -3.9633   -2.3912   -0.0131 H   0  0  0  0  0  0  0  0  0  0  0  0
  1  2  1  0  0  0  0
  2  3  1  0  0  0  0
  3  4  2  0  0  0  0
  4  5  2  0  0  0  0
  4  6  2  0  0  0  0
  6  7  1  0  0  0  0
  7  8  1  0  0  0  0
  4  9  1  0  0  0  0
  9 10  1  0  0  0  0
 10 11  1  0  0  0  0
 11 12  1  0  0  0  0
 12 13  2  0  0  0  0
 12 14  2  0  0  0  0
 14 15  1  0  0  0  0
 15 16  1  0  0  0  0
 12 17  2  0  0  0  0
 17 18  1  0  0  0  0
 18 19  1  0  0  0  0
  1 20  1  0  0  0  0
  1 21  1  0  0  0  0
  1 22  1  0  0  0  0
  2 23  1  0  0  0  0
  2 24  1  0  0  0  0
  7 25  1  0  0  0  0
  7 26  1  0  0  0  0
  8 27  1  0  0  0  0
  8 28  1  0  0  0  0
  8 29  1  0  0  0  0
 10 30  1  0  0  0  0
 10 31  1  0  0  0  0
 15 32  1  0  0  0  0
 15 33  1  0  0  0  0
 16 34  1  0  0  0  0
 16 35  1  0  0  0  0
 16 36  1  0  0  0  0
 18 37  1  0  0  0  0
 18 38  1  0  0  0  0
 19 39  1  0  0  0  0
 19 40  1  0  0  0  0
 19 41  1  0  0  0  0
M  END
