 xtb: 6.7.1 (edcfbbe)
          04092514023D

 41 40  0     0  0            999 V2000
    1.5286   -3.5753   -0.5510 C   0  0  0  0  0  0  0  0  0  0  0  0
    2.6229   -2.5770   -0.8686 C   0  0  0  0  0  0  0  0  0  0  0  0
    2.0241   -1.2979   -1.2107 O   0  0  0  0  0  0  0  0  0  0  0  0
    2.2835    0.0284   -0.3985 P   0  0  0  0  0  0  0  0  0  0  0  0
    1.4009    1.5602   -1.2357 S   0  0  0  0  0  0  0  0  0  0  0  0
    3.8751    0.0574   -0.3362 O   0  0  0  0  0  0  0  0  0  0  0  0
    4.6620    1.2434   -0.1265 C   0  0  0  0  0  0  0  0  0  0  0  0
    4.5341    1.7989    1.2774 C   0  0  0  0  0  0  0  0  0  0  0  0
    1.7378   -0.3850    1.6208 S   0  0  0  0  0  0  0  0  0  0  0  0
    0.0228    0.1518    1.5473 C   0  0  0  0  0  0  0  0  0  0  0  0
   -1.0003   -1.0065    0.5581 S   0  0  0  0  0  0  0  0  0  0  0  0
   -2.5984    0.2772    0.0007 P   0  0  0  0  0  0  0  0  0  0  0  0
   -2.3411    2.1831    0.4024 S   0  0  0  0  0  0  0  0  0  0  0  0
   -3.9167   -0.3830    0.5774 O   0  0  0  0  0  0  0  0  0  0  0  0
   -4.5106    0.0197    1.8245 C   0  0  0  0  0  0  0  0  0  0  0  0
   -3.6859   -0.4221    3.0171 C   0  0  0  0  0  0  0  0  0  0  0  0
   -2.9020   -0.0901   -1.5105 O   0  0  0  0  0  0  0  0  0  0  0  0
   -2.0612    0.3501   -2.5934 C   0  0  0  0  0  0  0  0  0  0  0  0
   -1.2256   -0.7947   -3.1318 C   0  0  0  0  0  0  0  0  0  0  0  0
    0.9769   -3.2671    0.3343 H   0  0  0  0  0  0  0  0  0  0  0  0
    0.8344   -3.6441   -1.3839 H   0  0  0  0  0  0  0  0  0  0  0  0
    1.9747   -4.5489   -0.3756 H   0  0  0  0  0  0  0  0  0  0  0  0
    3.1928   -2.8756   -1.7501 H   0  0  0  0  0  0  0  0  0  0  0  0
    3.3009   -2.4427   -0.0231 H   0  0  0  0  0  0  0  0  0  0  0  0
    5.6819    0.9128   -0.3316 H   0  0  0  0  0  0  0  0  0  0  0  0
    4.3596    1.9917   -0.8652 H   0  0  0  0  0  0  0  0  0  0  0  0
    4.7736    1.0380    2.0153 H   0  0  0  0  0  0  0  0  0  0  0  0
    5.2194    2.6342    1.3868 H   0  0  0  0  0  0  0  0  0  0  0  0
    3.5197    2.1536    1.4517 H   0  0  0  0  0  0  0  0  0  0  0  0
   -0.0417    1.1444    1.0938 H   0  0  0  0  0  0  0  0  0  0  0  0
   -0.3323    0.1641    2.5749 H   0  0  0  0  0  0  0  0  0  0  0  0
   -4.6310    1.1079    1.8204 H   0  0  0  0  0  0  0  0  0  0  0  0
   -5.4906   -0.4599    1.8145 H   0  0  0  0  0  0  0  0  0  0  0  0
   -4.2285   -0.2002    3.9308 H   0  0  0  0  0  0  0  0  0  0  0  0
   -3.4869   -1.4894    2.9652 H   0  0  0  0  0  0  0  0  0  0  0  0
   -2.7403    0.1187    3.0306 H   0  0  0  0  0  0  0  0  0  0  0  0
   -2.7509    0.7234   -3.3535 H   0  0  0  0  0  0  0  0  0  0  0  0
   -1.4263    1.1764   -2.2535 H   0  0  0  0  0  0  0  0  0  0  0  0
   -1.8694   -1.6168   -3.4309 H   0  0  0  0  0  0  0  0  0  0  0  0
   -0.6624   -0.4417   -3.9902 H   0  0  0  0  0  0  0  0  0  0  0  0
   -0.5245   -1.1463   -2.3775 H   0  0  0  0  0  0  0  0  0  0  0  0
  1  2  1  0  0  0  0
  2  3  1  0  0  0  0
  3  4  2  0  0  0  0
  4  5  2  0  0  0  0
  4  6  2  0  0  0  0
  6  7  1  0  0  0  0
  7  8  1  0  0  0  0
  4  9  1  0  0  0  0
  9 10  1  0  0  0  0
 10 11  1  0  0  0  0
 11 12  1  0  0  0  0
 12 13  2  0  0  0  0
 12 14  2  0  0  0  0
 14 15  1  0  0  0  0
 15 16  1  0  0  0  0
 12 17  2  0  0  0  0
 17 18  1  0  0  0  0
 18 19  1  0  0  0  0
  1 20  1  0  0  0  0
  1 21  1  0  0  0  0
  1 22  1  0  0  0  0
  2 23  1  0  0  0  0
  2 24  1  0  0  0  0
  7 25  1  0  0  0  0
  7 26  1  0  0  0  0
  8 27  1  0  0  0  0
  8 28  1  0  0  0  0
  8 29  1  0  0  0  0
 10 30  1  0  0  0  0
 10 31  1  0  0  0  0
 15 32  1  0  0  0  0
 15 33  1  0  0  0  0
 16 34  1  0  0  0  0
 16 35  1  0  0  0  0
 16 36  1  0  0  0  0
 18 37  1  0  0  0  0
 18 38  1  0  0  0  0
 19 39  1  0  0  0  0
 19 40  1  0  0  0  0
 19 41  1  0  0  0  0
M  END
