 xtb: 6.7.1 (edcfbbe)
          04092514023D

 41 40  0     0  0            999 V2000
    5.8674    0.7622   -0.2633 C   0  0  0  0  0  0  0  0  0  0  0  0
    4.5263    1.3406   -0.6739 C   0  0  0  0  0  0  0  0  0  0  0  0
    3.5738    0.2825   -0.9257 O   0  0  0  0  0  0  0  0  0  0  0  0
    2.4081   -0.0828    0.0889 P   0  0  0  0  0  0  0  0  0  0  0  0
    2.9339   -0.3782    1.9557 S   0  0  0  0  0  0  0  0  0  0  0  0
    1.7271   -1.3026   -0.6487 O   0  0  0  0  0  0  0  0  0  0  0  0
    1.8683   -2.6729   -0.2283 C   0  0  0  0  0  0  0  0  0  0  0  0
    3.1461   -3.2869   -0.7607 C   0  0  0  0  0  0  0  0  0  0  0  0
    0.9894    1.4499   -0.2457 S   0  0  0  0  0  0  0  0  0  0  0  0
    0.0139    1.2301    1.2691 C   0  0  0  0  0  0  0  0  0  0  0  0
   -0.9625   -0.3023    1.3368 S   0  0  0  0  0  0  0  0  0  0  0  0
   -2.2831   -0.0463   -0.3054 P   0  0  0  0  0  0  0  0  0  0  0  0
   -1.6870   -0.5332   -2.0997 S   0  0  0  0  0  0  0  0  0  0  0  0
   -2.6887    1.4854   -0.0888 O   0  0  0  0  0  0  0  0  0  0  0  0
   -3.1947    2.2885   -1.1757 C   0  0  0  0  0  0  0  0  0  0  0  0
   -4.6177    1.9101   -1.5351 C   0  0  0  0  0  0  0  0  0  0  0  0
   -3.5279   -0.9347    0.1176 O   0  0  0  0  0  0  0  0  0  0  0  0
   -4.3013   -0.6901    1.3221 C   0  0  0  0  0  0  0  0  0  0  0  0
   -5.7242   -1.1496    1.0735 C   0  0  0  0  0  0  0  0  0  0  0  0
    6.2134    0.0542   -1.0112 H   0  0  0  0  0  0  0  0  0  0  0  0
    6.5894    1.5679   -0.1733 H   0  0  0  0  0  0  0  0  0  0  0  0
    5.7829    0.2529    0.6942 H   0  0  0  0  0  0  0  0  0  0  0  0
    4.6020    1.8845   -1.6175 H   0  0  0  0  0  0  0  0  0  0  0  0
    4.1361    2.0073    0.1003 H   0  0  0  0  0  0  0  0  0  0  0  0
    1.8437   -2.7079    0.8666 H   0  0  0  0  0  0  0  0  0  0  0  0
    0.9824   -3.1662   -0.6326 H   0  0  0  0  0  0  0  0  0  0  0  0
    3.1908   -3.1801   -1.8412 H   0  0  0  0  0  0  0  0  0  0  0  0
    4.0096   -2.7915   -0.3198 H   0  0  0  0  0  0  0  0  0  0  0  0
    3.1688   -4.3409   -0.5009 H   0  0  0  0  0  0  0  0  0  0  0  0
   -0.6497    2.0872    1.3375 H   0  0  0  0  0  0  0  0  0  0  0  0
    0.6847    1.1741    2.1275 H   0  0  0  0  0  0  0  0  0  0  0  0
   -3.1297    3.3113   -0.8023 H   0  0  0  0  0  0  0  0  0  0  0  0
   -2.5333    2.1634   -2.0384 H   0  0  0  0  0  0  0  0  0  0  0  0
   -4.9776    2.5743   -2.3150 H   0  0  0  0  0  0  0  0  0  0  0  0
   -4.6452    0.8855   -1.9054 H   0  0  0  0  0  0  0  0  0  0  0  0
   -5.2669    1.9947   -0.6671 H   0  0  0  0  0  0  0  0  0  0  0  0
   -3.8358   -1.2560    2.1319 H   0  0  0  0  0  0  0  0  0  0  0  0
   -4.2618    0.3763    1.5574 H   0  0  0  0  0  0  0  0  0  0  0  0
   -6.1720   -0.5829    0.2618 H   0  0  0  0  0  0  0  0  0  0  0  0
   -5.7348   -2.2030    0.8091 H   0  0  0  0  0  0  0  0  0  0  0  0
   -6.3065   -1.0015    1.9777 H   0  0  0  0  0  0  0  0  0  0  0  0
  1  2  1  0  0  0  0
  2  3  1  0  0  0  0
  3  4  2  0  0  0  0
  4  5  2  0  0  0  0
  4  6  2  0  0  0  0
  6  7  1  0  0  0  0
  7  8  1  0  0  0  0
  4  9  1  0  0  0  0
  9 10  1  0  0  0  0
 10 11  1  0  0  0  0
 11 12  1  0  0  0  0
 12 13  2  0  0  0  0
 12 14  1  0  0  0  0
 14 15  1  0  0  0  0
 15 16  1  0  0  0  0
 12 17  2  0  0  0  0
 17 18  1  0  0  0  0
 18 19  1  0  0  0  0
  1 20  1  0  0  0  0
  1 21  1  0  0  0  0
  1 22  1  0  0  0  0
  2 23  1  0  0  0  0
  2 24  1  0  0  0  0
  7 25  1  0  0  0  0
  7 26  1  0  0  0  0
  8 27  1  0  0  0  0
  8 28  1  0  0  0  0
  8 29  1  0  0  0  0
 10 30  1  0  0  0  0
 10 31  1  0  0  0  0
 15 32  1  0  0  0  0
 15 33  1  0  0  0  0
 16 34  1  0  0  0  0
 16 35  1  0  0  0  0
 16 36  1  0  0  0  0
 18 37  1  0  0  0  0
 18 38  1  0  0  0  0
 19 39  1  0  0  0  0
 19 40  1  0  0  0  0
 19 41  1  0  0  0  0
M  END
