 xtb: 6.7.1 (edcfbbe)
          04092505213D

 41 40  0     0  0            999 V2000
    1.6633    3.2659    0.7225 C   0  0  0  0  0  0  0  0  0  0  0  0
    2.3136    2.0314    0.1351 C   0  0  0  0  0  0  0  0  0  0  0  0
    2.3096    1.0114    1.1668 O   0  0  0  0  0  0  0  0  0  0  0  0
    2.5763   -0.5159    0.8959 P   0  0  0  0  0  0  0  0  0  0  0  0
    2.5385   -1.5436    2.5578 S   0  0  0  0  0  0  0  0  0  0  0  0
    3.9540   -0.4879    0.1037 O   0  0  0  0  0  0  0  0  0  0  0  0
    4.7980   -1.6456   -0.0361 C   0  0  0  0  0  0  0  0  0  0  0  0
    4.1324   -2.7517   -0.8284 C   0  0  0  0  0  0  0  0  0  0  0  0
    1.1437   -1.0937   -0.5799 S   0  0  0  0  0  0  0  0  0  0  0  0
   -0.2565   -1.1472    0.5674 C   0  0  0  0  0  0  0  0  0  0  0  0
   -1.0587    0.4625    0.7837 S   0  0  0  0  0  0  0  0  0  0  0  0
   -2.4468    0.1940   -0.8248 P   0  0  0  0  0  0  0  0  0  0  0  0
   -1.7249   -0.4109   -2.5367 S   0  0  0  0  0  0  0  0  0  0  0  0
   -3.2683    1.5516   -0.8500 O   0  0  0  0  0  0  0  0  0  0  0  0
   -2.8835    2.6616   -1.6840 C   0  0  0  0  0  0  0  0  0  0  0  0
   -1.5600    3.2591   -1.2559 C   0  0  0  0  0  0  0  0  0  0  0  0
   -3.4742   -0.8527   -0.2375 O   0  0  0  0  0  0  0  0  0  0  0  0
   -4.2678   -0.6256    0.9543 C   0  0  0  0  0  0  0  0  0  0  0  0
   -5.6314   -0.0699    0.5988 C   0  0  0  0  0  0  0  0  0  0  0  0
    0.6568    3.0273    1.0557 H   0  0  0  0  0  0  0  0  0  0  0  0
    2.2375    3.6176    1.5743 H   0  0  0  0  0  0  0  0  0  0  0  0
    1.6216    4.0431   -0.0334 H   0  0  0  0  0  0  0  0  0  0  0  0
    3.3498    2.2134   -0.1552 H   0  0  0  0  0  0  0  0  0  0  0  0
    1.7611    1.6534   -0.7307 H   0  0  0  0  0  0  0  0  0  0  0  0
    5.6823   -1.2602   -0.5456 H   0  0  0  0  0  0  0  0  0  0  0  0
    5.0668   -1.9978    0.9644 H   0  0  0  0  0  0  0  0  0  0  0  0
    4.8514   -3.5432   -1.0138 H   0  0  0  0  0  0  0  0  0  0  0  0
    3.2953   -3.1616   -0.2647 H   0  0  0  0  0  0  0  0  0  0  0  0
    3.7621   -2.3702   -1.7770 H   0  0  0  0  0  0  0  0  0  0  0  0
    0.1049   -1.4720    1.5448 H   0  0  0  0  0  0  0  0  0  0  0  0
   -0.9768   -1.8549    0.1600 H   0  0  0  0  0  0  0  0  0  0  0  0
   -2.8316    2.3114   -2.7192 H   0  0  0  0  0  0  0  0  0  0  0  0
   -3.7041    3.3711   -1.5703 H   0  0  0  0  0  0  0  0  0  0  0  0
   -1.3588    4.1481   -1.8446 H   0  0  0  0  0  0  0  0  0  0  0  0
   -1.5876    3.5212   -0.2014 H   0  0  0  0  0  0  0  0  0  0  0  0
   -0.7614    2.5376   -1.4223 H   0  0  0  0  0  0  0  0  0  0  0  0
   -4.3501   -1.6112    1.4166 H   0  0  0  0  0  0  0  0  0  0  0  0
   -3.7242    0.0516    1.6189 H   0  0  0  0  0  0  0  0  0  0  0  0
   -6.1286   -0.7291   -0.1077 H   0  0  0  0  0  0  0  0  0  0  0  0
   -6.2293    0.0038    1.5019 H   0  0  0  0  0  0  0  0  0  0  0  0
   -5.5338    0.9152    0.1515 H   0  0  0  0  0  0  0  0  0  0  0  0
  1  2  1  0  0  0  0
  2  3  1  0  0  0  0
  3  4  2  0  0  0  0
  4  5  2  0  0  0  0
  4  6  2  0  0  0  0
  6  7  1  0  0  0  0
  7  8  1  0  0  0  0
  4  9  1  0  0  0  0
  9 10  1  0  0  0  0
 10 11  1  0  0  0  0
 11 12  1  0  0  0  0
 12 13  2  0  0  0  0
 12 14  2  0  0  0  0
 14 15  1  0  0  0  0
 15 16  1  0  0  0  0
 12 17  2  0  0  0  0
 17 18  1  0  0  0  0
 18 19  1  0  0  0  0
  1 20  1  0  0  0  0
  1 21  1  0  0  0  0
  1 22  1  0  0  0  0
  2 23  1  0  0  0  0
  2 24  1  0  0  0  0
  7 25  1  0  0  0  0
  7 26  1  0  0  0  0
  8 27  1  0  0  0  0
  8 28  1  0  0  0  0
  8 29  1  0  0  0  0
 10 30  1  0  0  0  0
 10 31  1  0  0  0  0
 15 32  1  0  0  0  0
 15 33  1  0  0  0  0
 16 34  1  0  0  0  0
 16 35  1  0  0  0  0
 16 36  1  0  0  0  0
 18 37  1  0  0  0  0
 18 38  1  0  0  0  0
 19 39  1  0  0  0  0
 19 40  1  0  0  0  0
 19 41  1  0  0  0  0
M  END
