 xtb: 6.7.1 (edcfbbe)
          04092505213D

 41 40  0     0  0            999 V2000
    3.0254    0.1806   -2.0462 C   0  0  0  0  0  0  0  0  0  0  0  0
    2.4947    1.3749   -1.2820 C   0  0  0  0  0  0  0  0  0  0  0  0
    1.5650    1.0143   -0.2314 O   0  0  0  0  0  0  0  0  0  0  0  0
    1.8761    0.0792    1.0044 P   0  0  0  0  0  0  0  0  0  0  0  0
    0.7468    0.4659    2.5560 S   0  0  0  0  0  0  0  0  0  0  0  0
    3.4306    0.3166    1.2264 O   0  0  0  0  0  0  0  0  0  0  0  0
    4.0936   -0.0128    2.4602 C   0  0  0  0  0  0  0  0  0  0  0  0
    4.1412   -1.5065    2.7065 C   0  0  0  0  0  0  0  0  0  0  0  0
    1.7452   -1.9360    0.3163 S   0  0  0  0  0  0  0  0  0  0  0  0
   -0.0315   -1.9821    0.0280 C   0  0  0  0  0  0  0  0  0  0  0  0
   -0.4804   -1.2291   -1.5886 S   0  0  0  0  0  0  0  0  0  0  0  0
   -1.9711    0.1145   -0.9993 P   0  0  0  0  0  0  0  0  0  0  0  0
   -2.7297    1.1935   -2.4447 S   0  0  0  0  0  0  0  0  0  0  0  0
   -1.2478    0.8744    0.1865 O   0  0  0  0  0  0  0  0  0  0  0  0
   -1.8719    2.0210    0.8091 C   0  0  0  0  0  0  0  0  0  0  0  0
   -1.2803    3.3021    0.2600 C   0  0  0  0  0  0  0  0  0  0  0  0
   -3.0270   -0.7646   -0.1768 O   0  0  0  0  0  0  0  0  0  0  0  0
   -4.1175   -1.4486   -0.8262 C   0  0  0  0  0  0  0  0  0  0  0  0
   -5.3978   -0.6470   -0.6963 C   0  0  0  0  0  0  0  0  0  0  0  0
    3.6316   -0.4476   -1.3972 H   0  0  0  0  0  0  0  0  0  0  0  0
    2.2063   -0.4110   -2.4500 H   0  0  0  0  0  0  0  0  0  0  0  0
    3.6402    0.5380   -2.8667 H   0  0  0  0  0  0  0  0  0  0  0  0
    1.8992    2.0263   -1.9248 H   0  0  0  0  0  0  0  0  0  0  0  0
    3.3102    1.9423   -0.8292 H   0  0  0  0  0  0  0  0  0  0  0  0
    5.0926    0.4077    2.3362 H   0  0  0  0  0  0  0  0  0  0  0  0
    3.5739    0.4956    3.2782 H   0  0  0  0  0  0  0  0  0  0  0  0
    4.7644   -1.7055    3.5724 H   0  0  0  0  0  0  0  0  0  0  0  0
    3.1389   -1.8853    2.8992 H   0  0  0  0  0  0  0  0  0  0  0  0
    4.5496   -2.0222    1.8412 H   0  0  0  0  0  0  0  0  0  0  0  0
   -0.5470   -1.4461    0.8243 H   0  0  0  0  0  0  0  0  0  0  0  0
   -0.3140   -3.0307   -0.0039 H   0  0  0  0  0  0  0  0  0  0  0  0
   -2.9511    1.9765    0.6408 H   0  0  0  0  0  0  0  0  0  0  0  0
   -1.6585    1.9064    1.8741 H   0  0  0  0  0  0  0  0  0  0  0  0
   -1.7083    4.1487    0.7871 H   0  0  0  0  0  0  0  0  0  0  0  0
   -0.2022    3.2960    0.4009 H   0  0  0  0  0  0  0  0  0  0  0  0
   -1.4984    3.3918   -0.8023 H   0  0  0  0  0  0  0  0  0  0  0  0
   -3.8661   -1.6105   -1.8785 H   0  0  0  0  0  0  0  0  0  0  0  0
   -4.1943   -2.4088   -0.3131 H   0  0  0  0  0  0  0  0  0  0  0  0
   -6.2181   -1.2120   -1.1268 H   0  0  0  0  0  0  0  0  0  0  0  0
   -5.6082   -0.4460    0.3505 H   0  0  0  0  0  0  0  0  0  0  0  0
   -5.3021    0.2981   -1.2269 H   0  0  0  0  0  0  0  0  0  0  0  0
  1  2  1  0  0  0  0
  2  3  1  0  0  0  0
  3  4  2  0  0  0  0
  4  5  2  0  0  0  0
  4  6  2  0  0  0  0
  6  7  1  0  0  0  0
  7  8  1  0  0  0  0
  4  9  1  0  0  0  0
  9 10  1  0  0  0  0
 10 11  1  0  0  0  0
 11 12  1  0  0  0  0
 12 13  2  0  0  0  0
 12 14  2  0  0  0  0
 14 15  1  0  0  0  0
 15 16  1  0  0  0  0
 12 17  1  0  0  0  0
 17 18  1  0  0  0  0
 18 19  1  0  0  0  0
  1 20  1  0  0  0  0
  1 21  1  0  0  0  0
  1 22  1  0  0  0  0
  2 23  1  0  0  0  0
  2 24  1  0  0  0  0
  7 25  1  0  0  0  0
  7 26  1  0  0  0  0
  8 27  1  0  0  0  0
  8 28  1  0  0  0  0
  8 29  1  0  0  0  0
 10 30  1  0  0  0  0
 10 31  1  0  0  0  0
 15 32  1  0  0  0  0
 15 33  1  0  0  0  0
 16 34  1  0  0  0  0
 16 35  1  0  0  0  0
 16 36  1  0  0  0  0
 18 37  1  0  0  0  0
 18 38  1  0  0  0  0
 19 39  1  0  0  0  0
 19 40  1  0  0  0  0
 19 41  1  0  0  0  0
M  END
