 xtb: 6.7.1 (edcfbbe)
          04092505203D

 41 40  0     0  0            999 V2000
    3.1119   -1.2804   -2.9995 C   0  0  0  0  0  0  0  0  0  0  0  0
    3.8959   -0.4107   -2.0379 C   0  0  0  0  0  0  0  0  0  0  0  0
    3.4493   -0.5845   -0.6862 O   0  0  0  0  0  0  0  0  0  0  0  0
    2.0227   -0.0726   -0.1895 P   0  0  0  0  0  0  0  0  0  0  0  0
    1.5724    1.6764   -0.9654 S   0  0  0  0  0  0  0  0  0  0  0  0
    2.1786   -0.1714    1.3822 O   0  0  0  0  0  0  0  0  0  0  0  0
    2.6434    0.9377    2.1773 C   0  0  0  0  0  0  0  0  0  0  0  0
    4.0933    1.2653    1.8950 C   0  0  0  0  0  0  0  0  0  0  0  0
    0.8431   -1.8056   -0.5218 S   0  0  0  0  0  0  0  0  0  0  0  0
   -0.1910   -1.9959    0.9685 C   0  0  0  0  0  0  0  0  0  0  0  0
   -1.9559   -1.7643    0.6502 S   0  0  0  0  0  0  0  0  0  0  0  0
   -1.8669    0.3377    0.3639 P   0  0  0  0  0  0  0  0  0  0  0  0
   -0.8111    1.2835    1.7118 S   0  0  0  0  0  0  0  0  0  0  0  0
   -3.3826    0.7930    0.2559 O   0  0  0  0  0  0  0  0  0  0  0  0
   -4.2329    0.9457    1.4098 C   0  0  0  0  0  0  0  0  0  0  0  0
   -5.0075   -0.3252    1.6974 C   0  0  0  0  0  0  0  0  0  0  0  0
   -1.3340    0.5434   -1.1012 O   0  0  0  0  0  0  0  0  0  0  0  0
   -1.9612   -0.0315   -2.2765 C   0  0  0  0  0  0  0  0  0  0  0  0
   -2.8871    0.9696   -2.9335 C   0  0  0  0  0  0  0  0  0  0  0  0
    3.5139   -1.1704   -4.0014 H   0  0  0  0  0  0  0  0  0  0  0  0
    3.1636   -2.3231   -2.6971 H   0  0  0  0  0  0  0  0  0  0  0  0
    2.0663   -0.9697   -2.9994 H   0  0  0  0  0  0  0  0  0  0  0  0
    3.7917    0.6469   -2.3036 H   0  0  0  0  0  0  0  0  0  0  0  0
    4.9507   -0.6863   -2.0078 H   0  0  0  0  0  0  0  0  0  0  0  0
    1.9979    1.8002    1.9806 H   0  0  0  0  0  0  0  0  0  0  0  0
    2.4912    0.6012    3.2040 H   0  0  0  0  0  0  0  0  0  0  0  0
    4.4282    2.0289    2.5899 H   0  0  0  0  0  0  0  0  0  0  0  0
    4.7069    0.3751    2.0061 H   0  0  0  0  0  0  0  0  0  0  0  0
    4.1959    1.6419    0.8780 H   0  0  0  0  0  0  0  0  0  0  0  0
    0.1351   -1.2842    1.7263 H   0  0  0  0  0  0  0  0  0  0  0  0
   -0.0721   -3.0219    1.3057 H   0  0  0  0  0  0  0  0  0  0  0  0
   -3.6160    1.2423    2.2643 H   0  0  0  0  0  0  0  0  0  0  0  0
   -4.9024    1.7664    1.1457 H   0  0  0  0  0  0  0  0  0  0  0  0
   -5.6956   -0.1397    2.5158 H   0  0  0  0  0  0  0  0  0  0  0  0
   -5.5695   -0.6263    0.8180 H   0  0  0  0  0  0  0  0  0  0  0  0
   -4.3337   -1.1322    1.9753 H   0  0  0  0  0  0  0  0  0  0  0  0
   -1.1238   -0.2890   -2.9284 H   0  0  0  0  0  0  0  0  0  0  0  0
   -2.4943   -0.9406   -1.9839 H   0  0  0  0  0  0  0  0  0  0  0  0
   -3.2764    0.5403   -3.8513 H   0  0  0  0  0  0  0  0  0  0  0  0
   -3.7122    1.2137   -2.2699 H   0  0  0  0  0  0  0  0  0  0  0  0
   -2.3413    1.8807   -3.1649 H   0  0  0  0  0  0  0  0  0  0  0  0
  1  2  1  0  0  0  0
  2  3  1  0  0  0  0
  3  4  2  0  0  0  0
  4  5  2  0  0  0  0
  4  6  2  0  0  0  0
  6  7  1  0  0  0  0
  7  8  1  0  0  0  0
  4  9  1  0  0  0  0
  9 10  1  0  0  0  0
 10 11  1  0  0  0  0
 11 12  1  0  0  0  0
 12 13  2  0  0  0  0
 12 14  2  0  0  0  0
 14 15  1  0  0  0  0
 15 16  1  0  0  0  0
 12 17  2  0  0  0  0
 17 18  1  0  0  0  0
 18 19  1  0  0  0  0
  1 20  1  0  0  0  0
  1 21  1  0  0  0  0
  1 22  1  0  0  0  0
  2 23  1  0  0  0  0
  2 24  1  0  0  0  0
  7 25  1  0  0  0  0
  7 26  1  0  0  0  0
  8 27  1  0  0  0  0
  8 28  1  0  0  0  0
  8 29  1  0  0  0  0
 10 30  1  0  0  0  0
 10 31  1  0  0  0  0
 15 32  1  0  0  0  0
 15 33  1  0  0  0  0
 16 34  1  0  0  0  0
 16 35  1  0  0  0  0
 16 36  1  0  0  0  0
 18 37  1  0  0  0  0
 18 38  1  0  0  0  0
 19 39  1  0  0  0  0
 19 40  1  0  0  0  0
 19 41  1  0  0  0  0
M  END
