 xtb: 6.7.1 (edcfbbe)
          04092505203D

 41 40  0     0  0            999 V2000
    2.6971   -2.2752   -2.6057 C   0  0  0  0  0  0  0  0  0  0  0  0
    1.6841   -2.1775   -1.4845 C   0  0  0  0  0  0  0  0  0  0  0  0
    1.3529   -0.7893   -1.2117 O   0  0  0  0  0  0  0  0  0  0  0  0
    2.0017    0.0394   -0.0348 P   0  0  0  0  0  0  0  0  0  0  0  0
    1.3770    1.8941   -0.0069 S   0  0  0  0  0  0  0  0  0  0  0  0
    3.5573   -0.1569   -0.2929 O   0  0  0  0  0  0  0  0  0  0  0  0
    4.5564    0.6928    0.2983 C   0  0  0  0  0  0  0  0  0  0  0  0
    4.6203    0.5464    1.8046 C   0  0  0  0  0  0  0  0  0  0  0  0
    1.6465   -1.1182    1.7137 S   0  0  0  0  0  0  0  0  0  0  0  0
   -0.0815   -0.6612    1.9717 C   0  0  0  0  0  0  0  0  0  0  0  0
   -1.1935   -1.2940    0.6769 S   0  0  0  0  0  0  0  0  0  0  0  0
   -2.0454    0.5308   -0.0226 P   0  0  0  0  0  0  0  0  0  0  0  0
   -2.0065    2.0386    1.2190 S   0  0  0  0  0  0  0  0  0  0  0  0
   -3.5022    0.0725   -0.4748 O   0  0  0  0  0  0  0  0  0  0  0  0
   -4.6290    0.0689    0.4203 C   0  0  0  0  0  0  0  0  0  0  0  0
   -4.4829   -0.9406    1.5402 C   0  0  0  0  0  0  0  0  0  0  0  0
   -1.3629    0.8289   -1.4130 O   0  0  0  0  0  0  0  0  0  0  0  0
   -1.4265   -0.0875   -2.5337 C   0  0  0  0  0  0  0  0  0  0  0  0
   -2.4931    0.3428   -3.5188 C   0  0  0  0  0  0  0  0  0  0  0  0
    2.8753   -3.3225   -2.8286 H   0  0  0  0  0  0  0  0  0  0  0  0
    2.3225   -1.7780   -3.4961 H   0  0  0  0  0  0  0  0  0  0  0  0
    3.6320   -1.8071   -2.3097 H   0  0  0  0  0  0  0  0  0  0  0  0
    2.0621   -2.6381   -0.5678 H   0  0  0  0  0  0  0  0  0  0  0  0
    0.7331   -2.6377   -1.7597 H   0  0  0  0  0  0  0  0  0  0  0  0
    5.4842    0.3713   -0.1771 H   0  0  0  0  0  0  0  0  0  0  0  0
    4.3344    1.7280    0.0214 H   0  0  0  0  0  0  0  0  0  0  0  0
    3.7159    0.9508    2.2568 H   0  0  0  0  0  0  0  0  0  0  0  0
    4.7137   -0.5009    2.0807 H   0  0  0  0  0  0  0  0  0  0  0  0
    5.4759    1.0976    2.1813 H   0  0  0  0  0  0  0  0  0  0  0  0
   -0.1801    0.4276    2.0096 H   0  0  0  0  0  0  0  0  0  0  0  0
   -0.3716   -1.1137    2.9164 H   0  0  0  0  0  0  0  0  0  0  0  0
   -4.7455    1.0780    0.8271 H   0  0  0  0  0  0  0  0  0  0  0  0
   -5.4726   -0.1704   -0.2288 H   0  0  0  0  0  0  0  0  0  0  0  0
   -4.2423   -1.9220    1.1395 H   0  0  0  0  0  0  0  0  0  0  0  0
   -3.6903   -0.6299    2.2189 H   0  0  0  0  0  0  0  0  0  0  0  0
   -5.4154   -0.9942    2.0929 H   0  0  0  0  0  0  0  0  0  0  0  0
   -0.4295   -0.0425   -2.9764 H   0  0  0  0  0  0  0  0  0  0  0  0
   -1.6181   -1.0953   -2.1543 H   0  0  0  0  0  0  0  0  0  0  0  0
   -2.3117    1.3659   -3.8372 H   0  0  0  0  0  0  0  0  0  0  0  0
   -2.4617   -0.3139   -4.3826 H   0  0  0  0  0  0  0  0  0  0  0  0
   -3.4760    0.2874   -3.0588 H   0  0  0  0  0  0  0  0  0  0  0  0
  1  2  1  0  0  0  0
  2  3  1  0  0  0  0
  3  4  2  0  0  0  0
  4  5  2  0  0  0  0
  4  6  2  0  0  0  0
  6  7  1  0  0  0  0
  7  8  1  0  0  0  0
  4  9  1  0  0  0  0
  9 10  1  0  0  0  0
 10 11  1  0  0  0  0
 11 12  1  0  0  0  0
 12 13  2  0  0  0  0
 12 14  2  0  0  0  0
 14 15  1  0  0  0  0
 15 16  1  0  0  0  0
 12 17  2  0  0  0  0
 17 18  1  0  0  0  0
 18 19  1  0  0  0  0
  1 20  1  0  0  0  0
  1 21  1  0  0  0  0
  1 22  1  0  0  0  0
  2 23  1  0  0  0  0
  2 24  1  0  0  0  0
  7 25  1  0  0  0  0
  7 26  1  0  0  0  0
  8 27  1  0  0  0  0
  8 28  1  0  0  0  0
  8 29  1  0  0  0  0
 10 30  1  0  0  0  0
 10 31  1  0  0  0  0
 15 32  1  0  0  0  0
 15 33  1  0  0  0  0
 16 34  1  0  0  0  0
 16 35  1  0  0  0  0
 16 36  1  0  0  0  0
 18 37  1  0  0  0  0
 18 38  1  0  0  0  0
 19 39  1  0  0  0  0
 19 40  1  0  0  0  0
 19 41  1  0  0  0  0
M  END
