 xtb: 6.7.1 (edcfbbe)
          04092505213D

 41 40  0     0  0            999 V2000
    4.5467    1.2295   -1.7947 C   0  0  0  0  0  0  0  0  0  0  0  0
    4.9698    0.4987   -0.5368 C   0  0  0  0  0  0  0  0  0  0  0  0
    3.9345   -0.3607   -0.0273 O   0  0  0  0  0  0  0  0  0  0  0  0
    2.5736    0.2066    0.5643 P   0  0  0  0  0  0  0  0  0  0  0  0
    2.7583    1.8435    1.6175 S   0  0  0  0  0  0  0  0  0  0  0  0
    2.0519   -0.9799    1.4627 O   0  0  0  0  0  0  0  0  0  0  0  0
    1.5480   -2.2671    1.0379 C   0  0  0  0  0  0  0  0  0  0  0  0
    2.4675   -2.9826    0.0739 C   0  0  0  0  0  0  0  0  0  0  0  0
    1.2655    0.3233   -1.1187 S   0  0  0  0  0  0  0  0  0  0  0  0
    0.1462    1.5616   -0.4235 C   0  0  0  0  0  0  0  0  0  0  0  0
   -0.8761    0.9374    0.9429 S   0  0  0  0  0  0  0  0  0  0  0  0
   -2.2103   -0.2798   -0.1687 P   0  0  0  0  0  0  0  0  0  0  0  0
   -1.6040   -1.9437   -0.9899 S   0  0  0  0  0  0  0  0  0  0  0  0
   -2.7517    0.8277   -1.1887 O   0  0  0  0  0  0  0  0  0  0  0  0
   -3.3310    0.4590   -2.4567 C   0  0  0  0  0  0  0  0  0  0  0  0
   -4.7129   -0.1349   -2.2777 C   0  0  0  0  0  0  0  0  0  0  0  0
   -3.3545   -0.5783    0.8850 O   0  0  0  0  0  0  0  0  0  0  0  0
   -4.0793    0.4691    1.5781 C   0  0  0  0  0  0  0  0  0  0  0  0
   -5.4808   -0.0362    1.8533 C   0  0  0  0  0  0  0  0  0  0  0  0
    3.7680    1.9535   -1.5600 H   0  0  0  0  0  0  0  0  0  0  0  0
    5.4019    1.7552   -2.2069 H   0  0  0  0  0  0  0  0  0  0  0  0
    4.1645    0.5274   -2.5315 H   0  0  0  0  0  0  0  0  0  0  0  0
    5.2429    1.2114    0.2477 H   0  0  0  0  0  0  0  0  0  0  0  0
    5.8006   -0.1823   -0.7262 H   0  0  0  0  0  0  0  0  0  0  0  0
    1.4408   -2.8131    1.9764 H   0  0  0  0  0  0  0  0  0  0  0  0
    0.5606   -2.1223    0.5887 H   0  0  0  0  0  0  0  0  0  0  0  0
    3.4642   -3.0740    0.4974 H   0  0  0  0  0  0  0  0  0  0  0  0
    2.0626   -3.9704   -0.1240 H   0  0  0  0  0  0  0  0  0  0  0  0
    2.5273   -2.4356   -0.8652 H   0  0  0  0  0  0  0  0  0  0  0  0
   -0.4925    1.9112   -1.2296 H   0  0  0  0  0  0  0  0  0  0  0  0
    0.7340    2.3750    0.0046 H   0  0  0  0  0  0  0  0  0  0  0  0
   -3.3589    1.3930   -3.0195 H   0  0  0  0  0  0  0  0  0  0  0  0
   -2.6650   -0.2561   -2.9497 H   0  0  0  0  0  0  0  0  0  0  0  0
   -4.6441   -1.0513   -1.6916 H   0  0  0  0  0  0  0  0  0  0  0  0
   -5.3651    0.5681   -1.7657 H   0  0  0  0  0  0  0  0  0  0  0  0
   -5.1327   -0.3704   -3.2506 H   0  0  0  0  0  0  0  0  0  0  0  0
   -3.5407    0.6810    2.5046 H   0  0  0  0  0  0  0  0  0  0  0  0
   -4.0894    1.3664    0.9543 H   0  0  0  0  0  0  0  0  0  0  0  0
   -6.0269    0.7173    2.4116 H   0  0  0  0  0  0  0  0  0  0  0  0
   -6.0000   -0.2408    0.9211 H   0  0  0  0  0  0  0  0  0  0  0  0
   -5.4356   -0.9525    2.4348 H   0  0  0  0  0  0  0  0  0  0  0  0
  1  2  1  0  0  0  0
  2  3  1  0  0  0  0
  3  4  2  0  0  0  0
  4  5  2  0  0  0  0
  4  6  2  0  0  0  0
  6  7  1  0  0  0  0
  7  8  1  0  0  0  0
  4  9  1  0  0  0  0
  9 10  1  0  0  0  0
 10 11  1  0  0  0  0
 11 12  1  0  0  0  0
 12 13  2  0  0  0  0
 12 14  1  0  0  0  0
 14 15  1  0  0  0  0
 15 16  1  0  0  0  0
 12 17  2  0  0  0  0
 17 18  1  0  0  0  0
 18 19  1  0  0  0  0
  1 20  1  0  0  0  0
  1 21  1  0  0  0  0
  1 22  1  0  0  0  0
  2 23  1  0  0  0  0
  2 24  1  0  0  0  0
  7 25  1  0  0  0  0
  7 26  1  0  0  0  0
  8 27  1  0  0  0  0
  8 28  1  0  0  0  0
  8 29  1  0  0  0  0
 10 30  1  0  0  0  0
 10 31  1  0  0  0  0
 15 32  1  0  0  0  0
 15 33  1  0  0  0  0
 16 34  1  0  0  0  0
 16 35  1  0  0  0  0
 16 36  1  0  0  0  0
 18 37  1  0  0  0  0
 18 38  1  0  0  0  0
 19 39  1  0  0  0  0
 19 40  1  0  0  0  0
 19 41  1  0  0  0  0
M  END
