10
 xtb: 6.7.1 (edcfbbe)
C           -0.68685697543544       -0.62842951437610       -0.29834504501764
C            0.68458334533460       -0.56818834080047        0.32663907420817
O            1.46031153744714        0.54015740654795       -0.15891209843354
O           -1.42188281851364        0.53434079178461        0.12707337349836
H           -1.18960458654930       -1.54930209834859        0.03157822099826
H           -0.60017670155181       -0.64759251190855       -1.39329382665635
H            1.23583754309089       -1.47618386899695        0.06458176569721
H            0.59548628852608       -0.52216954762993        1.42176774302058
H            0.99110057022841        1.34530117072908        0.09512526284237
H           -2.24010159285390        0.56511883757408       -0.38353021904583
