 xtb: 6.7.1 (edcfbbe)
          04092507313D

 38 37  0     0  0            999 V2000
    3.0062   -3.8581    0.2076 C   0  0  0  0  0  0  0  0  0  0  0  0
    2.6960   -2.4216    0.5776 C   0  0  0  0  0  0  0  0  0  0  0  0
    2.1851   -1.7614   -0.5962 O   0  0  0  0  0  0  0  0  0  0  0  0
    2.0391   -0.4581   -0.5688 C   0  0  0  0  0  0  0  0  0  0  0  0
    2.2883    0.2502    0.3866 O   0  0  0  0  0  0  0  0  0  0  0  0
    1.5542    0.0914   -1.8979 C   0  0  0  0  0  0  0  0  0  0  0  0
    0.2891    0.9361   -1.7187 C   0  0  0  0  0  0  0  0  0  0  0  0
    0.1450    1.5721   -2.5953 H   0  0  0  0  0  0  0  0  0  0  0  0
    0.3712    1.8099   -0.4803 C   0  0  0  0  0  0  0  0  0  0  0  0
   -0.3509    1.6320    0.4863 O   0  0  0  0  0  0  0  0  0  0  0  0
    1.2306    2.7720   -0.6224 O   0  0  0  0  0  0  0  0  0  0  0  0
    1.5004    3.6651    0.4822 C   0  0  0  0  0  0  0  0  0  0  0  0
    2.9447    3.4957    0.9184 C   0  0  0  0  0  0  0  0  0  0  0  0
   -1.2177   -0.0835   -1.6224 S   0  0  0  0  0  0  0  0  0  0  0  0
   -1.6995   -0.3789    0.4351 P   0  0  0  0  0  0  0  0  0  0  0  0
   -0.4283   -1.0247    1.7813 S   0  0  0  0  0  0  0  0  0  0  0  0
   -2.7120    0.7406    0.9219 O   0  0  0  0  0  0  0  0  0  0  0  0
   -3.9408    1.0246    0.2274 C   0  0  0  0  0  0  0  0  0  0  0  0
   -2.7896   -1.5395    0.1406 O   0  0  0  0  0  0  0  0  0  0  0  0
   -2.4041   -2.8772   -0.1743 C   0  0  0  0  0  0  0  0  0  0  0  0
    3.3887   -4.3749    1.0811 H   0  0  0  0  0  0  0  0  0  0  0  0
    2.1038   -4.3548   -0.1349 H   0  0  0  0  0  0  0  0  0  0  0  0
    3.7492   -3.8882   -0.5838 H   0  0  0  0  0  0  0  0  0  0  0  0
    3.5858   -1.8806    0.9147 H   0  0  0  0  0  0  0  0  0  0  0  0
    1.9360   -2.3532    1.3634 H   0  0  0  0  0  0  0  0  0  0  0  0
    1.3630   -0.7291   -2.5879 H   0  0  0  0  0  0  0  0  0  0  0  0
    2.3461    0.7330   -2.2901 H   0  0  0  0  0  0  0  0  0  0  0  0
    1.3129    4.6691    0.0965 H   0  0  0  0  0  0  0  0  0  0  0  0
    0.8082    3.4350    1.2960 H   0  0  0  0  0  0  0  0  0  0  0  0
    3.1165    2.4642    1.2176 H   0  0  0  0  0  0  0  0  0  0  0  0
    3.6148    3.7431    0.1007 H   0  0  0  0  0  0  0  0  0  0  0  0
    3.1438    4.1500    1.7604 H   0  0  0  0  0  0  0  0  0  0  0  0
   -4.6482    0.2126    0.3857 H   0  0  0  0  0  0  0  0  0  0  0  0
   -3.7530    1.1506   -0.8391 H   0  0  0  0  0  0  0  0  0  0  0  0
   -4.3047    1.9497    0.6674 H   0  0  0  0  0  0  0  0  0  0  0  0
   -2.0553   -2.9310   -1.2055 H   0  0  0  0  0  0  0  0  0  0  0  0
   -3.2978   -3.4811   -0.0393 H   0  0  0  0  0  0  0  0  0  0  0  0
   -1.6155   -3.2065    0.5055 H   0  0  0  0  0  0  0  0  0  0  0  0
  1  2  1  0  0  0  0
  2  3  1  0  0  0  0
  3  4  4  0  0  0  0
  4  5  2  0  0  0  0
  4  6  1  0  0  0  0
  6  7  1  0  0  0  0
  7  8  1  0  0  0  0
  7  9  1  0  0  0  0
  9 10  2  0  0  0  0
  9 11  4  0  0  0  0
 11 12  1  0  0  0  0
 12 13  1  0  0  0  0
  7 14  1  0  0  0  0
 14 15  1  0  0  0  0
 15 16  2  0  0  0  0
 15 17  2  0  0  0  0
 17 18  1  0  0  0  0
 15 19  1  0  0  0  0
 19 20  1  0  0  0  0
  1 21  1  0  0  0  0
  1 22  1  0  0  0  0
  1 23  1  0  0  0  0
  2 24  1  0  0  0  0
  2 25  1  0  0  0  0
  6 26  1  0  0  0  0
  6 27  1  0  0  0  0
 12 28  1  0  0  0  0
 12 29  1  0  0  0  0
 13 30  1  0  0  0  0
 13 31  1  0  0  0  0
 13 32  1  0  0  0  0
 18 33  1  0  0  0  0
 18 34  1  0  0  0  0
 18 35  1  0  0  0  0
 20 36  1  0  0  0  0
 20 37  1  0  0  0  0
 20 38  1  0  0  0  0
M  END
