 xtb: 6.7.1 (edcfbbe)
          04092505213D

 41 40  0     0  0            999 V2000
    3.8627    1.4852   -1.9809 C   0  0  0  0  0  0  0  0  0  0  0  0
    2.5809    0.7283   -2.2547 C   0  0  0  0  0  0  0  0  0  0  0  0
    2.3905   -0.3629   -1.3344 O   0  0  0  0  0  0  0  0  0  0  0  0
    2.1224   -0.1539    0.2121 P   0  0  0  0  0  0  0  0  0  0  0  0
    1.0087    1.3906    0.7097 S   0  0  0  0  0  0  0  0  0  0  0  0
    3.5923   -0.0829    0.8096 O   0  0  0  0  0  0  0  0  0  0  0  0
    3.8639    0.3951    2.1387 C   0  0  0  0  0  0  0  0  0  0  0  0
    3.3030   -0.5279    3.2009 C   0  0  0  0  0  0  0  0  0  0  0  0
    1.5447   -2.1168    0.7099 S   0  0  0  0  0  0  0  0  0  0  0  0
   -0.1382   -2.1880    0.0377 C   0  0  0  0  0  0  0  0  0  0  0  0
   -1.3349   -1.1969    0.9887 S   0  0  0  0  0  0  0  0  0  0  0  0
   -1.9293    0.1503   -0.5148 P   0  0  0  0  0  0  0  0  0  0  0  0
   -0.8983    0.2419   -2.1750 S   0  0  0  0  0  0  0  0  0  0  0  0
   -2.1521    1.5936    0.0991 O   0  0  0  0  0  0  0  0  0  0  0  0
   -3.0037    1.8648    1.2404 C   0  0  0  0  0  0  0  0  0  0  0  0
   -2.2235    1.8166    2.5384 C   0  0  0  0  0  0  0  0  0  0  0  0
   -3.3991   -0.4572   -0.7269 O   0  0  0  0  0  0  0  0  0  0  0  0
   -4.2433    0.0383   -1.7866 C   0  0  0  0  0  0  0  0  0  0  0  0
   -5.5242   -0.7697   -1.7715 C   0  0  0  0  0  0  0  0  0  0  0  0
    4.7032    0.7969   -1.9487 H   0  0  0  0  0  0  0  0  0  0  0  0
    4.0203    2.2166   -2.7674 H   0  0  0  0  0  0  0  0  0  0  0  0
    3.7918    2.0022   -1.0248 H   0  0  0  0  0  0  0  0  0  0  0  0
    2.5910    0.2426   -3.2315 H   0  0  0  0  0  0  0  0  0  0  0  0
    1.7116    1.3913   -2.1932 H   0  0  0  0  0  0  0  0  0  0  0  0
    4.9526    0.4465    2.1800 H   0  0  0  0  0  0  0  0  0  0  0  0
    3.4369    1.3983    2.2380 H   0  0  0  0  0  0  0  0  0  0  0  0
    3.6452   -1.5464    3.0355 H   0  0  0  0  0  0  0  0  0  0  0  0
    3.6278   -0.1898    4.1797 H   0  0  0  0  0  0  0  0  0  0  0  0
    2.2141   -0.5148    3.1654 H   0  0  0  0  0  0  0  0  0  0  0  0
   -0.4365   -3.2305    0.1090 H   0  0  0  0  0  0  0  0  0  0  0  0
   -0.1360   -1.8405   -0.9984 H   0  0  0  0  0  0  0  0  0  0  0  0
   -3.3804    2.8707    1.0453 H   0  0  0  0  0  0  0  0  0  0  0  0
   -3.8294    1.1480    1.2477 H   0  0  0  0  0  0  0  0  0  0  0  0
   -1.3207    2.4158    2.4468 H   0  0  0  0  0  0  0  0  0  0  0  0
   -2.8412    2.2122    3.3383 H   0  0  0  0  0  0  0  0  0  0  0  0
   -1.9369    0.7957    2.7797 H   0  0  0  0  0  0  0  0  0  0  0  0
   -4.4347    1.1031   -1.6185 H   0  0  0  0  0  0  0  0  0  0  0  0
   -3.7058   -0.0733   -2.7340 H   0  0  0  0  0  0  0  0  0  0  0  0
   -6.0273   -0.6547   -0.8158 H   0  0  0  0  0  0  0  0  0  0  0  0
   -6.1747   -0.4200   -2.5664 H   0  0  0  0  0  0  0  0  0  0  0  0
   -5.2992   -1.8209   -1.9253 H   0  0  0  0  0  0  0  0  0  0  0  0
  1  2  1  0  0  0  0
  2  3  1  0  0  0  0
  3  4  2  0  0  0  0
  4  5  2  0  0  0  0
  4  6  2  0  0  0  0
  6  7  1  0  0  0  0
  7  8  1  0  0  0  0
  4  9  1  0  0  0  0
  9 10  1  0  0  0  0
 10 11  1  0  0  0  0
 11 12  1  0  0  0  0
 12 13  2  0  0  0  0
 12 14  2  0  0  0  0
 14 15  1  0  0  0  0
 15 16  1  0  0  0  0
 12 17  1  0  0  0  0
 17 18  1  0  0  0  0
 18 19  1  0  0  0  0
  1 20  1  0  0  0  0
  1 21  1  0  0  0  0
  1 22  1  0  0  0  0
  2 23  1  0  0  0  0
  2 24  1  0  0  0  0
  7 25  1  0  0  0  0
  7 26  1  0  0  0  0
  8 27  1  0  0  0  0
  8 28  1  0  0  0  0
  8 29  1  0  0  0  0
 10 30  1  0  0  0  0
 10 31  1  0  0  0  0
 15 32  1  0  0  0  0
 15 33  1  0  0  0  0
 16 34  1  0  0  0  0
 16 35  1  0  0  0  0
 16 36  1  0  0  0  0
 18 37  1  0  0  0  0
 18 38  1  0  0  0  0
 19 39  1  0  0  0  0
 19 40  1  0  0  0  0
 19 41  1  0  0  0  0
M  END
