 xtb: 6.7.1 (edcfbbe)
          04092505213D

 41 40  0     0  0            999 V2000
    3.1448    2.3769   -1.3740 C   0  0  0  0  0  0  0  0  0  0  0  0
    1.9555    1.4424   -1.3049 C   0  0  0  0  0  0  0  0  0  0  0  0
    1.5921    1.1947    0.0748 O   0  0  0  0  0  0  0  0  0  0  0  0
    1.9863   -0.1368    0.8382 P   0  0  0  0  0  0  0  0  0  0  0  0
    1.5776    0.0327    2.7411 S   0  0  0  0  0  0  0  0  0  0  0  0
    3.5112   -0.2951    0.4205 O   0  0  0  0  0  0  0  0  0  0  0  0
    4.2779   -1.5112    0.5111 C   0  0  0  0  0  0  0  0  0  0  0  0
    4.2116   -2.1510    1.8815 C   0  0  0  0  0  0  0  0  0  0  0  0
    1.0610   -1.7180   -0.2539 S   0  0  0  0  0  0  0  0  0  0  0  0
   -0.4990   -1.8340    0.6687 C   0  0  0  0  0  0  0  0  0  0  0  0
   -1.3349   -0.2650    1.0054 S   0  0  0  0  0  0  0  0  0  0  0  0
   -1.9724    0.3105   -0.9536 P   0  0  0  0  0  0  0  0  0  0  0  0
   -1.4414   -0.8205   -2.4573 S   0  0  0  0  0  0  0  0  0  0  0  0
   -1.4248    1.7717   -1.1811 O   0  0  0  0  0  0  0  0  0  0  0  0
   -1.3168    2.8385   -0.2063 C   0  0  0  0  0  0  0  0  0  0  0  0
   -2.5761    3.0582    0.6026 C   0  0  0  0  0  0  0  0  0  0  0  0
   -3.5340    0.5742   -0.7879 O   0  0  0  0  0  0  0  0  0  0  0  0
   -4.4790   -0.3498   -0.2243 C   0  0  0  0  0  0  0  0  0  0  0  0
   -4.5970   -1.6312   -1.0243 C   0  0  0  0  0  0  0  0  0  0  0  0
    3.3664    2.5925   -2.4145 H   0  0  0  0  0  0  0  0  0  0  0  0
    2.9198    3.3034   -0.8531 H   0  0  0  0  0  0  0  0  0  0  0  0
    4.0111    1.9145   -0.9080 H   0  0  0  0  0  0  0  0  0  0  0  0
    2.1661    0.4884   -1.7972 H   0  0  0  0  0  0  0  0  0  0  0  0
    1.0681    1.8872   -1.7607 H   0  0  0  0  0  0  0  0  0  0  0  0
    3.9135   -2.2006   -0.2559 H   0  0  0  0  0  0  0  0  0  0  0  0
    5.2933   -1.1923    0.2692 H   0  0  0  0  0  0  0  0  0  0  0  0
    4.5078   -1.4389    2.6481 H   0  0  0  0  0  0  0  0  0  0  0  0
    3.1955   -2.4803    2.0939 H   0  0  0  0  0  0  0  0  0  0  0  0
    4.8753   -3.0091    1.9099 H   0  0  0  0  0  0  0  0  0  0  0  0
   -0.3048   -2.2633    1.6501 H   0  0  0  0  0  0  0  0  0  0  0  0
   -1.1366   -2.4805    0.0689 H   0  0  0  0  0  0  0  0  0  0  0  0
   -0.4705    2.6093    0.4483 H   0  0  0  0  0  0  0  0  0  0  0  0
   -1.0814    3.7099   -0.8199 H   0  0  0  0  0  0  0  0  0  0  0  0
   -3.4292    3.1974   -0.0563 H   0  0  0  0  0  0  0  0  0  0  0  0
   -2.7624    2.2074    1.2561 H   0  0  0  0  0  0  0  0  0  0  0  0
   -2.4454    3.9449    1.2158 H   0  0  0  0  0  0  0  0  0  0  0  0
   -4.1821   -0.5616    0.8076 H   0  0  0  0  0  0  0  0  0  0  0  0
   -5.4177    0.2070   -0.2300 H   0  0  0  0  0  0  0  0  0  0  0  0
   -4.8339   -1.4084   -2.0616 H   0  0  0  0  0  0  0  0  0  0  0  0
   -3.6584   -2.1822   -1.0016 H   0  0  0  0  0  0  0  0  0  0  0  0
   -5.3817   -2.2492   -0.5999 H   0  0  0  0  0  0  0  0  0  0  0  0
  1  2  1  0  0  0  0
  2  3  1  0  0  0  0
  3  4  2  0  0  0  0
  4  5  2  0  0  0  0
  4  6  2  0  0  0  0
  6  7  1  0  0  0  0
  7  8  1  0  0  0  0
  4  9  1  0  0  0  0
  9 10  1  0  0  0  0
 10 11  1  0  0  0  0
 11 12  1  0  0  0  0
 12 13  2  0  0  0  0
 12 14  2  0  0  0  0
 14 15  1  0  0  0  0
 15 16  1  0  0  0  0
 12 17  2  0  0  0  0
 17 18  1  0  0  0  0
 18 19  1  0  0  0  0
  1 20  1  0  0  0  0
  1 21  1  0  0  0  0
  1 22  1  0  0  0  0
  2 23  1  0  0  0  0
  2 24  1  0  0  0  0
  7 25  1  0  0  0  0
  7 26  1  0  0  0  0
  8 27  1  0  0  0  0
  8 28  1  0  0  0  0
  8 29  1  0  0  0  0
 10 30  1  0  0  0  0
 10 31  1  0  0  0  0
 15 32  1  0  0  0  0
 15 33  1  0  0  0  0
 16 34  1  0  0  0  0
 16 35  1  0  0  0  0
 16 36  1  0  0  0  0
 18 37  1  0  0  0  0
 18 38  1  0  0  0  0
 19 39  1  0  0  0  0
 19 40  1  0  0  0  0
 19 41  1  0  0  0  0
M  END
