 xtb: 6.7.1 (edcfbbe)
          04092507313D

 38 37  0     0  0            999 V2000
    3.5667   -1.1178    1.8491 C   0  0  0  0  0  0  0  0  0  0  0  0
    2.8383   -1.9878    0.8385 C   0  0  0  0  0  0  0  0  0  0  0  0
    2.6397   -1.2820   -0.4052 O   0  0  0  0  0  0  0  0  0  0  0  0
    1.6091   -0.4974   -0.5442 C   0  0  0  0  0  0  0  0  0  0  0  0
    0.7796   -0.2701    0.3299 O   0  0  0  0  0  0  0  0  0  0  0  0
    1.5065    0.1345   -1.9071 C   0  0  0  0  0  0  0  0  0  0  0  0
    0.2977    1.0586   -1.9063 C   0  0  0  0  0  0  0  0  0  0  0  0
    0.2320    1.6172   -2.8432 H   0  0  0  0  0  0  0  0  0  0  0  0
    0.3397    2.0473   -0.7491 C   0  0  0  0  0  0  0  0  0  0  0  0
   -0.6271    2.3868   -0.1084 O   0  0  0  0  0  0  0  0  0  0  0  0
    1.5602    2.5166   -0.5862 O   0  0  0  0  0  0  0  0  0  0  0  0
    1.8065    3.4870    0.4541 C   0  0  0  0  0  0  0  0  0  0  0  0
    2.5406    2.8369    1.6148 C   0  0  0  0  0  0  0  0  0  0  0  0
   -1.2916    0.1480   -1.8709 S   0  0  0  0  0  0  0  0  0  0  0  0
   -1.6059   -0.7913   -0.0030 P   0  0  0  0  0  0  0  0  0  0  0  0
   -0.9108   -2.5731    0.4855 S   0  0  0  0  0  0  0  0  0  0  0  0
   -1.8104    0.1980    1.2325 O   0  0  0  0  0  0  0  0  0  0  0  0
   -0.9852    0.3076    2.3845 C   0  0  0  0  0  0  0  0  0  0  0  0
   -3.1463   -0.9279   -0.4549 O   0  0  0  0  0  0  0  0  0  0  0  0
   -4.0902   -1.6950    0.2927 C   0  0  0  0  0  0  0  0  0  0  0  0
    4.5030   -0.7611    1.4291 H   0  0  0  0  0  0  0  0  0  0  0  0
    2.9512   -0.2656    2.1267 H   0  0  0  0  0  0  0  0  0  0  0  0
    3.7730   -1.7040    2.7382 H   0  0  0  0  0  0  0  0  0  0  0  0
    1.8653   -2.3119    1.2181 H   0  0  0  0  0  0  0  0  0  0  0  0
    3.4341   -2.8555    0.5565 H   0  0  0  0  0  0  0  0  0  0  0  0
    1.3953   -0.6457   -2.6613 H   0  0  0  0  0  0  0  0  0  0  0  0
    2.4219    0.6910   -2.1139 H   0  0  0  0  0  0  0  0  0  0  0  0
    2.4180    4.2575   -0.0175 H   0  0  0  0  0  0  0  0  0  0  0  0
    0.8486    3.9064    0.7734 H   0  0  0  0  0  0  0  0  0  0  0  0
    1.9381    2.0346    2.0373 H   0  0  0  0  0  0  0  0  0  0  0  0
    3.4879    2.4258    1.2775 H   0  0  0  0  0  0  0  0  0  0  0  0
    2.7251    3.5789    2.3844 H   0  0  0  0  0  0  0  0  0  0  0  0
   -1.6550    0.5335    3.2116 H   0  0  0  0  0  0  0  0  0  0  0  0
   -0.2747    1.1192    2.2374 H   0  0  0  0  0  0  0  0  0  0  0  0
   -0.4555   -0.6299    2.5614 H   0  0  0  0  0  0  0  0  0  0  0  0
   -4.4161   -1.1337    1.1681 H   0  0  0  0  0  0  0  0  0  0  0  0
   -3.6434   -2.6425    0.6045 H   0  0  0  0  0  0  0  0  0  0  0  0
   -4.9252   -1.8741   -0.3802 H   0  0  0  0  0  0  0  0  0  0  0  0
  1  2  1  0  0  0  0
  2  3  1  0  0  0  0
  3  4  4  0  0  0  0
  4  5  2  0  0  0  0
  4  6  1  0  0  0  0
  6  7  1  0  0  0  0
  7  8  1  0  0  0  0
  7  9  1  0  0  0  0
  9 10  2  0  0  0  0
  9 11  1  0  0  0  0
 11 12  1  0  0  0  0
 12 13  1  0  0  0  0
  7 14  1  0  0  0  0
 14 15  1  0  0  0  0
 15 16  2  0  0  0  0
 15 17  2  0  0  0  0
 17 18  1  0  0  0  0
 15 19  1  0  0  0  0
 19 20  1  0  0  0  0
  1 21  1  0  0  0  0
  1 22  1  0  0  0  0
  1 23  1  0  0  0  0
  2 24  1  0  0  0  0
  2 25  1  0  0  0  0
  6 26  1  0  0  0  0
  6 27  1  0  0  0  0
 12 28  1  0  0  0  0
 12 29  1  0  0  0  0
 13 30  1  0  0  0  0
 13 31  1  0  0  0  0
 13 32  1  0  0  0  0
 18 33  1  0  0  0  0
 18 34  1  0  0  0  0
 18 35  1  0  0  0  0
 20 36  1  0  0  0  0
 20 37  1  0  0  0  0
 20 38  1  0  0  0  0
M  END
