41
 xtb: 6.7.1 (edcfbbe)
C            2.35550543596061       -3.16048228540300       -1.51848259631275
C            3.00221700868383       -2.57554282301837       -0.28805546285372
O            3.39159909569653       -1.16678914604613       -0.49888368504745
P            2.45966984105325        0.09284628066467       -0.14123781656153
S            3.49482882819870        1.71043704464258        0.17260788667263
O            1.47811676155004       -0.38649761046234        1.03582460129298
C            1.69125011494606       -0.04072767014832        2.44639948531225
C            2.71678369781468       -0.94543627504309        3.08335603271882
S            1.14796413132218        0.15189530205145       -1.80872130262285
C            0.38818436121358        1.81270402323555       -1.60630951038449
S           -0.60256984178399        2.12113199394265       -0.09507583612890
P           -2.11213175025117        0.64716250203916       -0.32882356126296
S           -2.76488108396216        0.35016947894125       -2.14101063835195
O           -3.11638114692327        1.30380597384036        0.74341406046131
C           -4.31630891020529        0.55205166021062        1.15175148603962
C           -5.09609345333163        1.43705126432165        2.08804639225202
O           -1.59759512258584       -0.66184256627777        0.45226250531587
C           -1.41988589219108       -1.98289716869769       -0.15840683235246
C           -2.60461904168483       -2.85697705233130        0.16787807683915
H            2.98882841225525       -3.02154888199279       -2.39934825327629
H            2.21997975735286       -4.23545208324291       -1.35882393917871
H            1.37077881786095       -2.72419055603085       -1.71008964407097
H            3.94930336851048       -3.06955829456806       -0.06128240770081
H            2.35249352545307       -2.63665524098012        0.58795603316969
H            1.97957495130473        1.01319424561511        2.50338978486839
H            0.70318552438889       -0.16508062388697        2.89520955019302
H            3.69849797256000       -0.82788456662868        2.61339780832508
H            2.81109114999854       -0.68015769054038        4.14157220238709
H            2.41199816182508       -1.99352587381431        3.01726856092209
H           -0.24050591436019        1.94434132222732       -2.49193175005813
H            1.17227747213237        2.57550511584602       -1.59817341205266
H           -4.89042850600635        0.30618546109131        0.25254002340042
H           -3.99006501489176       -0.37122275602878        1.64022274482891
H           -5.40912014779655        2.35768371398304        1.58791371339662
H           -5.99094063847722        0.89983978918111        2.41684855461738
H           -4.50278382586693        1.69160279232433        2.97077677692078
H           -1.28451176334726       -1.86413352273434       -1.23647048192228
H           -0.49472335092173       -2.36843914798858        0.27781403269200
H           -3.52186815184163       -2.45414434228250       -0.27228968307232
H           -2.43267495732107       -3.85627500829298       -0.24593619154525
H           -2.73776068624505       -2.95113863169003        1.24944734949027
