 xtb: 6.7.1 (edcfbbe)
          04092505213D

 41 40  0     0  0            999 V2000
    3.8146    0.3093   -2.7954 C   0  0  0  0  0  0  0  0  0  0  0  0
    2.5238    0.2884   -2.0034 C   0  0  0  0  0  0  0  0  0  0  0  0
    2.7963   -0.3373   -0.7349 O   0  0  0  0  0  0  0  0  0  0  0  0
    1.8873   -0.1372    0.5488 P   0  0  0  0  0  0  0  0  0  0  0  0
    1.4114    1.7090    0.9755 S   0  0  0  0  0  0  0  0  0  0  0  0
    2.7460   -0.7618    1.7122 O   0  0  0  0  0  0  0  0  0  0  0  0
    3.3808   -2.0642    1.6488 C   0  0  0  0  0  0  0  0  0  0  0  0
    4.8171   -1.9409    1.1836 C   0  0  0  0  0  0  0  0  0  0  0  0
    0.3619   -1.6038    0.2157 S   0  0  0  0  0  0  0  0  0  0  0  0
   -0.6227   -1.3473    1.7075 C   0  0  0  0  0  0  0  0  0  0  0  0
   -1.5593    0.2226    1.7533 S   0  0  0  0  0  0  0  0  0  0  0  0
   -2.1432    0.4063   -0.2647 P   0  0  0  0  0  0  0  0  0  0  0  0
   -0.9241    0.8977   -1.7309 S   0  0  0  0  0  0  0  0  0  0  0  0
   -3.3588    1.4299   -0.1580 O   0  0  0  0  0  0  0  0  0  0  0  0
   -3.1886    2.8484   -0.3058 C   0  0  0  0  0  0  0  0  0  0  0  0
   -2.3973    3.4434    0.8413 C   0  0  0  0  0  0  0  0  0  0  0  0
   -2.8881   -0.9800   -0.4139 O   0  0  0  0  0  0  0  0  0  0  0  0
   -3.2933   -1.5148   -1.6972 C   0  0  0  0  0  0  0  0  0  0  0  0
   -2.3151   -2.5757   -2.1598 C   0  0  0  0  0  0  0  0  0  0  0  0
    4.1766   -0.7040   -2.9429 H   0  0  0  0  0  0  0  0  0  0  0  0
    3.6279    0.7685   -3.7604 H   0  0  0  0  0  0  0  0  0  0  0  0
    4.5688    0.8839   -2.2648 H   0  0  0  0  0  0  0  0  0  0  0  0
    1.7476   -0.2881   -2.5132 H   0  0  0  0  0  0  0  0  0  0  0  0
    2.1406    1.2984   -1.8248 H   0  0  0  0  0  0  0  0  0  0  0  0
    3.3269   -2.4404    2.6720 H   0  0  0  0  0  0  0  0  0  0  0  0
    2.8022   -2.7092    0.9820 H   0  0  0  0  0  0  0  0  0  0  0  0
    5.3587   -1.2530    1.8270 H   0  0  0  0  0  0  0  0  0  0  0  0
    5.2882   -2.9181    1.2253 H   0  0  0  0  0  0  0  0  0  0  0  0
    4.8527   -1.5679    0.1638 H   0  0  0  0  0  0  0  0  0  0  0  0
    0.0232   -1.3309    2.5839 H   0  0  0  0  0  0  0  0  0  0  0  0
   -1.3258   -2.1759    1.7496 H   0  0  0  0  0  0  0  0  0  0  0  0
   -2.6855    3.0407   -1.2595 H   0  0  0  0  0  0  0  0  0  0  0  0
   -4.2083    3.2342   -0.3374 H   0  0  0  0  0  0  0  0  0  0  0  0
   -2.3717    4.5238    0.7433 H   0  0  0  0  0  0  0  0  0  0  0  0
   -2.8501    3.1758    1.7930 H   0  0  0  0  0  0  0  0  0  0  0  0
   -1.3724    3.0681    0.8265 H   0  0  0  0  0  0  0  0  0  0  0  0
   -4.2861   -1.9307   -1.5205 H   0  0  0  0  0  0  0  0  0  0  0  0
   -3.3581   -0.6995   -2.4227 H   0  0  0  0  0  0  0  0  0  0  0  0
   -1.3375   -2.1314   -2.3325 H   0  0  0  0  0  0  0  0  0  0  0  0
   -2.2157   -3.3511   -1.4058 H   0  0  0  0  0  0  0  0  0  0  0  0
   -2.6753   -3.0134   -3.0850 H   0  0  0  0  0  0  0  0  0  0  0  0
  1  2  1  0  0  0  0
  2  3  1  0  0  0  0
  3  4  2  0  0  0  0
  4  5  2  0  0  0  0
  4  6  2  0  0  0  0
  6  7  1  0  0  0  0
  7  8  1  0  0  0  0
  4  9  1  0  0  0  0
  9 10  1  0  0  0  0
 10 11  1  0  0  0  0
 11 12  1  0  0  0  0
 12 13  2  0  0  0  0
 12 14  2  0  0  0  0
 14 15  1  0  0  0  0
 15 16  1  0  0  0  0
 12 17  2  0  0  0  0
 17 18  1  0  0  0  0
 18 19  1  0  0  0  0
  1 20  1  0  0  0  0
  1 21  1  0  0  0  0
  1 22  1  0  0  0  0
  2 23  1  0  0  0  0
  2 24  1  0  0  0  0
  7 25  1  0  0  0  0
  7 26  1  0  0  0  0
  8 27  1  0  0  0  0
  8 28  1  0  0  0  0
  8 29  1  0  0  0  0
 10 30  1  0  0  0  0
 10 31  1  0  0  0  0
 15 32  1  0  0  0  0
 15 33  1  0  0  0  0
 16 34  1  0  0  0  0
 16 35  1  0  0  0  0
 16 36  1  0  0  0  0
 18 37  1  0  0  0  0
 18 38  1  0  0  0  0
 19 39  1  0  0  0  0
 19 40  1  0  0  0  0
 19 41  1  0  0  0  0
M  END
