 xtb: 6.7.1 (edcfbbe)
          04092505203D

 41 40  0     0  0            999 V2000
    3.2390    2.1028   -1.7696 C   0  0  0  0  0  0  0  0  0  0  0  0
    2.0560    1.1635   -1.6753 C   0  0  0  0  0  0  0  0  0  0  0  0
    1.4462    1.2441   -0.3606 O   0  0  0  0  0  0  0  0  0  0  0  0
    1.7333    0.1909    0.7725 P   0  0  0  0  0  0  0  0  0  0  0  0
    1.0854    0.7096    2.5417 S   0  0  0  0  0  0  0  0  0  0  0  0
    3.3167    0.0568    0.6802 O   0  0  0  0  0  0  0  0  0  0  0  0
    4.0466   -0.7817    1.5974 C   0  0  0  0  0  0  0  0  0  0  0  0
    5.5214   -0.4748    1.4335 C   0  0  0  0  0  0  0  0  0  0  0  0
    1.1284   -1.7411    0.0780 S   0  0  0  0  0  0  0  0  0  0  0  0
   -0.2370   -2.0857    1.2150 C   0  0  0  0  0  0  0  0  0  0  0  0
   -1.8698   -2.1372    0.4210 S   0  0  0  0  0  0  0  0  0  0  0  0
   -1.8565   -0.2687   -0.5959 P   0  0  0  0  0  0  0  0  0  0  0  0
   -1.0447   -0.2498   -2.3831 S   0  0  0  0  0  0  0  0  0  0  0  0
   -1.2320    0.6871    0.5021 O   0  0  0  0  0  0  0  0  0  0  0  0
   -1.7503    2.0048    0.8037 C   0  0  0  0  0  0  0  0  0  0  0  0
   -1.5316    2.9638   -0.3458 C   0  0  0  0  0  0  0  0  0  0  0  0
   -3.3871    0.1428   -0.5920 O   0  0  0  0  0  0  0  0  0  0  0  0
   -4.3143   -0.3416   -1.5851 C   0  0  0  0  0  0  0  0  0  0  0  0
   -5.4501    0.6556   -1.6923 C   0  0  0  0  0  0  0  0  0  0  0  0
    4.0142    1.8032   -1.0695 H   0  0  0  0  0  0  0  0  0  0  0  0
    3.6332    2.0693   -2.7804 H   0  0  0  0  0  0  0  0  0  0  0  0
    2.9287    3.1181   -1.5386 H   0  0  0  0  0  0  0  0  0  0  0  0
    2.3474    0.1282   -1.8703 H   0  0  0  0  0  0  0  0  0  0  0  0
    1.2601    1.4424   -2.3694 H   0  0  0  0  0  0  0  0  0  0  0  0
    3.7014   -0.5663    2.6139 H   0  0  0  0  0  0  0  0  0  0  0  0
    3.8261   -1.8258    1.3579 H   0  0  0  0  0  0  0  0  0  0  0  0
    5.7139    0.5688    1.6657 H   0  0  0  0  0  0  0  0  0  0  0  0
    6.0915   -1.1027    2.1102 H   0  0  0  0  0  0  0  0  0  0  0  0
    5.8314   -0.6735    0.4117 H   0  0  0  0  0  0  0  0  0  0  0  0
   -0.2315   -1.3278    2.0036 H   0  0  0  0  0  0  0  0  0  0  0  0
   -0.0860   -3.0820    1.6239 H   0  0  0  0  0  0  0  0  0  0  0  0
   -2.8089    1.9080    1.0484 H   0  0  0  0  0  0  0  0  0  0  0  0
   -1.1859    2.2990    1.6911 H   0  0  0  0  0  0  0  0  0  0  0  0
   -0.4699    3.0423   -0.5673 H   0  0  0  0  0  0  0  0  0  0  0  0
   -2.0470    2.6022   -1.2352 H   0  0  0  0  0  0  0  0  0  0  0  0
   -1.9187    3.9417   -0.0778 H   0  0  0  0  0  0  0  0  0  0  0  0
   -3.7822   -0.4499   -2.5365 H   0  0  0  0  0  0  0  0  0  0  0  0
   -4.6707   -1.3219   -1.2597 H   0  0  0  0  0  0  0  0  0  0  0  0
   -6.1737    0.2897   -2.4132 H   0  0  0  0  0  0  0  0  0  0  0  0
   -5.9333    0.7742   -0.7268 H   0  0  0  0  0  0  0  0  0  0  0  0
   -5.0751    1.6207   -2.0215 H   0  0  0  0  0  0  0  0  0  0  0  0
  1  2  1  0  0  0  0
  2  3  1  0  0  0  0
  3  4  2  0  0  0  0
  4  5  2  0  0  0  0
  4  6  2  0  0  0  0
  6  7  1  0  0  0  0
  7  8  1  0  0  0  0
  4  9  1  0  0  0  0
  9 10  1  0  0  0  0
 10 11  1  0  0  0  0
 11 12  1  0  0  0  0
 12 13  2  0  0  0  0
 12 14  2  0  0  0  0
 14 15  1  0  0  0  0
 15 16  1  0  0  0  0
 12 17  2  0  0  0  0
 17 18  1  0  0  0  0
 18 19  1  0  0  0  0
  1 20  1  0  0  0  0
  1 21  1  0  0  0  0
  1 22  1  0  0  0  0
  2 23  1  0  0  0  0
  2 24  1  0  0  0  0
  7 25  1  0  0  0  0
  7 26  1  0  0  0  0
  8 27  1  0  0  0  0
  8 28  1  0  0  0  0
  8 29  1  0  0  0  0
 10 30  1  0  0  0  0
 10 31  1  0  0  0  0
 15 32  1  0  0  0  0
 15 33  1  0  0  0  0
 16 34  1  0  0  0  0
 16 35  1  0  0  0  0
 16 36  1  0  0  0  0
 18 37  1  0  0  0  0
 18 38  1  0  0  0  0
 19 39  1  0  0  0  0
 19 40  1  0  0  0  0
 19 41  1  0  0  0  0
M  END
