 xtb: 6.7.1 (edcfbbe)
          04092505203D

 41 40  0     0  0            999 V2000
    2.8246    1.6878   -2.1430 C   0  0  0  0  0  0  0  0  0  0  0  0
    3.0766    0.1952   -2.1343 C   0  0  0  0  0  0  0  0  0  0  0  0
    2.1915   -0.5129   -1.2425 O   0  0  0  0  0  0  0  0  0  0  0  0
    2.0519   -0.2622    0.3139 P   0  0  0  0  0  0  0  0  0  0  0  0
    1.0930    1.3342    0.9499 S   0  0  0  0  0  0  0  0  0  0  0  0
    3.5649   -0.3181    0.7958 O   0  0  0  0  0  0  0  0  0  0  0  0
    3.9680    0.1177    2.1054 C   0  0  0  0  0  0  0  0  0  0  0  0
    3.4782   -0.8246    3.1852 C   0  0  0  0  0  0  0  0  0  0  0  0
    1.2529   -2.1360    0.8586 S   0  0  0  0  0  0  0  0  0  0  0  0
   -0.3555   -2.0494    0.0231 C   0  0  0  0  0  0  0  0  0  0  0  0
   -1.5734   -1.0087    0.8791 S   0  0  0  0  0  0  0  0  0  0  0  0
   -1.9490    0.4783   -0.6090 P   0  0  0  0  0  0  0  0  0  0  0  0
   -0.8456    0.3502   -2.2217 S   0  0  0  0  0  0  0  0  0  0  0  0
   -1.8417    1.9264   -0.0109 O   0  0  0  0  0  0  0  0  0  0  0  0
   -2.7108    2.5171    0.9845 C   0  0  0  0  0  0  0  0  0  0  0  0
   -2.5913    1.8361    2.3312 C   0  0  0  0  0  0  0  0  0  0  0  0
   -3.5292    0.3760   -0.8163 O   0  0  0  0  0  0  0  0  0  0  0  0
   -4.2702   -0.8344   -1.0423 C   0  0  0  0  0  0  0  0  0  0  0  0
   -3.8735   -1.5341   -2.3262 C   0  0  0  0  0  0  0  0  0  0  0  0
    3.0535    2.1171   -1.1682 H   0  0  0  0  0  0  0  0  0  0  0  0
    3.4511    2.1565   -2.8952 H   0  0  0  0  0  0  0  0  0  0  0  0
    1.7790    1.8871   -2.3721 H   0  0  0  0  0  0  0  0  0  0  0  0
    4.1042   -0.0293   -1.8390 H   0  0  0  0  0  0  0  0  0  0  0  0
    2.8570   -0.2479   -3.1073 H   0  0  0  0  0  0  0  0  0  0  0  0
    5.0571    0.1422    2.0504 H   0  0  0  0  0  0  0  0  0  0  0  0
    3.5776    1.1276    2.2692 H   0  0  0  0  0  0  0  0  0  0  0  0
    2.3909   -0.7872    3.2428 H   0  0  0  0  0  0  0  0  0  0  0  0
    3.7804   -1.8446    2.9623 H   0  0  0  0  0  0  0  0  0  0  0  0
    3.8929   -0.5236    4.1418 H   0  0  0  0  0  0  0  0  0  0  0  0
   -0.7334   -3.0683    0.0209 H   0  0  0  0  0  0  0  0  0  0  0  0
   -0.2181   -1.6649   -0.9918 H   0  0  0  0  0  0  0  0  0  0  0  0
   -2.3620    3.5501    1.0292 H   0  0  0  0  0  0  0  0  0  0  0  0
   -3.7353    2.4820    0.6085 H   0  0  0  0  0  0  0  0  0  0  0  0
   -1.5451    1.7807    2.6252 H   0  0  0  0  0  0  0  0  0  0  0  0
   -3.1411    2.4100    3.0704 H   0  0  0  0  0  0  0  0  0  0  0  0
   -2.9982    0.8269    2.2895 H   0  0  0  0  0  0  0  0  0  0  0  0
   -4.1268   -1.4927   -0.1804 H   0  0  0  0  0  0  0  0  0  0  0  0
   -5.3070   -0.4952   -1.0802 H   0  0  0  0  0  0  0  0  0  0  0  0
   -2.8418   -1.8771   -2.2682 H   0  0  0  0  0  0  0  0  0  0  0  0
   -4.5236   -2.3882   -2.4859 H   0  0  0  0  0  0  0  0  0  0  0  0
   -3.9579   -0.8532   -3.1697 H   0  0  0  0  0  0  0  0  0  0  0  0
  1  2  1  0  0  0  0
  2  3  1  0  0  0  0
  3  4  2  0  0  0  0
  4  5  2  0  0  0  0
  4  6  2  0  0  0  0
  6  7  1  0  0  0  0
  7  8  1  0  0  0  0
  4  9  1  0  0  0  0
  9 10  1  0  0  0  0
 10 11  1  0  0  0  0
 11 12  1  0  0  0  0
 12 13  2  0  0  0  0
 12 14  2  0  0  0  0
 14 15  1  0  0  0  0
 15 16  1  0  0  0  0
 12 17  2  0  0  0  0
 17 18  1  0  0  0  0
 18 19  1  0  0  0  0
  1 20  1  0  0  0  0
  1 21  1  0  0  0  0
  1 22  1  0  0  0  0
  2 23  1  0  0  0  0
  2 24  1  0  0  0  0
  7 25  1  0  0  0  0
  7 26  1  0  0  0  0
  8 27  1  0  0  0  0
  8 28  1  0  0  0  0
  8 29  1  0  0  0  0
 10 30  1  0  0  0  0
 10 31  1  0  0  0  0
 15 32  1  0  0  0  0
 15 33  1  0  0  0  0
 16 34  1  0  0  0  0
 16 35  1  0  0  0  0
 16 36  1  0  0  0  0
 18 37  1  0  0  0  0
 18 38  1  0  0  0  0
 19 39  1  0  0  0  0
 19 40  1  0  0  0  0
 19 41  1  0  0  0  0
M  END
