 xtb: 6.7.1 (edcfbbe)
          04092513573D

 41 40  0     0  0            999 V2000
    4.9331   -2.5018   -1.6380 C   0  0  0  0  0  0  0  0  0  0  0  0
    4.0598   -1.2628   -1.6274 C   0  0  0  0  0  0  0  0  0  0  0  0
    3.0842   -1.4156   -0.5741 O   0  0  0  0  0  0  0  0  0  0  0  0
    2.1610   -0.2113   -0.1046 P   0  0  0  0  0  0  0  0  0  0  0  0
    3.1048    1.4610    0.3043 S   0  0  0  0  0  0  0  0  0  0  0  0
    1.3596   -0.8877    1.0776 O   0  0  0  0  0  0  0  0  0  0  0  0
    1.6357   -0.6199    2.4659 C   0  0  0  0  0  0  0  0  0  0  0  0
    2.8455   -1.3939    2.9462 C   0  0  0  0  0  0  0  0  0  0  0  0
    0.6923   -0.1187   -1.6232 S   0  0  0  0  0  0  0  0  0  0  0  0
    0.0606    1.5411   -1.2551 C   0  0  0  0  0  0  0  0  0  0  0  0
   -0.6877    1.6995    0.3930 S   0  0  0  0  0  0  0  0  0  0  0  0
   -2.3112    0.3896    0.0954 P   0  0  0  0  0  0  0  0  0  0  0  0
   -3.1229    0.3074   -1.6898 S   0  0  0  0  0  0  0  0  0  0  0  0
   -3.3370    0.7392    1.2624 O   0  0  0  0  0  0  0  0  0  0  0  0
   -4.4572    1.6273    1.0980 C   0  0  0  0  0  0  0  0  0  0  0  0
   -4.0331    3.0794    1.0156 C   0  0  0  0  0  0  0  0  0  0  0  0
   -1.6679   -0.9456    0.6555 O   0  0  0  0  0  0  0  0  0  0  0  0
   -2.2624   -2.2442    0.4269 C   0  0  0  0  0  0  0  0  0  0  0  0
   -1.4180   -3.0307   -0.5558 C   0  0  0  0  0  0  0  0  0  0  0  0
    5.4577   -2.6015   -0.6923 H   0  0  0  0  0  0  0  0  0  0  0  0
    4.3212   -3.3851   -1.7964 H   0  0  0  0  0  0  0  0  0  0  0  0
    5.6577   -2.4186   -2.4417 H   0  0  0  0  0  0  0  0  0  0  0  0
    3.5282   -1.1434   -2.5757 H   0  0  0  0  0  0  0  0  0  0  0  0
    4.6453   -0.3588   -1.4303 H   0  0  0  0  0  0  0  0  0  0  0  0
    1.7866    0.4576    2.5927 H   0  0  0  0  0  0  0  0  0  0  0  0
    0.7234   -0.9251    2.9807 H   0  0  0  0  0  0  0  0  0  0  0  0
    2.9725   -1.2350    4.0126 H   0  0  0  0  0  0  0  0  0  0  0  0
    2.7163   -2.4549    2.7505 H   0  0  0  0  0  0  0  0  0  0  0  0
    3.7367   -1.0451    2.4263 H   0  0  0  0  0  0  0  0  0  0  0  0
   -0.6847    1.7555   -2.0202 H   0  0  0  0  0  0  0  0  0  0  0  0
    0.8789    2.2600   -1.2826 H   0  0  0  0  0  0  0  0  0  0  0  0
   -5.0023    1.3336    0.1951 H   0  0  0  0  0  0  0  0  0  0  0  0
   -5.0707    1.4384    1.9802 H   0  0  0  0  0  0  0  0  0  0  0  0
   -3.4119    3.3427    1.8677 H   0  0  0  0  0  0  0  0  0  0  0  0
   -3.4676    3.2538    0.1015 H   0  0  0  0  0  0  0  0  0  0  0  0
   -4.9183    3.7081    1.0078 H   0  0  0  0  0  0  0  0  0  0  0  0
   -2.2914   -2.7246    1.4064 H   0  0  0  0  0  0  0  0  0  0  0  0
   -3.2822   -2.1154    0.0519 H   0  0  0  0  0  0  0  0  0  0  0  0
   -1.4309   -2.5487   -1.5313 H   0  0  0  0  0  0  0  0  0  0  0  0
   -0.3896   -3.0773   -0.2059 H   0  0  0  0  0  0  0  0  0  0  0  0
   -1.8163   -4.0361   -0.6484 H   0  0  0  0  0  0  0  0  0  0  0  0
  1  2  1  0  0  0  0
  2  3  1  0  0  0  0
  3  4  2  0  0  0  0
  4  5  2  0  0  0  0
  4  6  2  0  0  0  0
  6  7  1  0  0  0  0
  7  8  1  0  0  0  0
  4  9  1  0  0  0  0
  9 10  1  0  0  0  0
 10 11  1  0  0  0  0
 11 12  1  0  0  0  0
 12 13  2  0  0  0  0
 12 14  2  0  0  0  0
 14 15  1  0  0  0  0
 15 16  1  0  0  0  0
 12 17  2  0  0  0  0
 17 18  1  0  0  0  0
 18 19  1  0  0  0  0
  1 20  1  0  0  0  0
  1 21  1  0  0  0  0
  1 22  1  0  0  0  0
  2 23  1  0  0  0  0
  2 24  1  0  0  0  0
  7 25  1  0  0  0  0
  7 26  1  0  0  0  0
  8 27  1  0  0  0  0
  8 28  1  0  0  0  0
  8 29  1  0  0  0  0
 10 30  1  0  0  0  0
 10 31  1  0  0  0  0
 15 32  1  0  0  0  0
 15 33  1  0  0  0  0
 16 34  1  0  0  0  0
 16 35  1  0  0  0  0
 16 36  1  0  0  0  0
 18 37  1  0  0  0  0
 18 38  1  0  0  0  0
 19 39  1  0  0  0  0
 19 40  1  0  0  0  0
 19 41  1  0  0  0  0
M  END
