 xtb: 6.7.1 (edcfbbe)
          04092505203D

 41 40  0     0  0            999 V2000
    0.7487   -1.0648    3.3617 C   0  0  0  0  0  0  0  0  0  0  0  0
    2.0261   -0.5960    2.6961 C   0  0  0  0  0  0  0  0  0  0  0  0
    1.6922    0.1161    1.4776 O   0  0  0  0  0  0  0  0  0  0  0  0
    2.3955   -0.1813    0.0950 P   0  0  0  0  0  0  0  0  0  0  0  0
    2.9885   -2.0296   -0.2023 S   0  0  0  0  0  0  0  0  0  0  0  0
    3.5589    0.8998    0.0930 O   0  0  0  0  0  0  0  0  0  0  0  0
    4.6018    0.9112   -0.9025 C   0  0  0  0  0  0  0  0  0  0  0  0
    5.8371    1.5317   -0.2811 C   0  0  0  0  0  0  0  0  0  0  0  0
    0.9904    0.5834   -1.2817 S   0  0  0  0  0  0  0  0  0  0  0  0
   -0.0216   -0.9223   -1.3741 C   0  0  0  0  0  0  0  0  0  0  0  0
   -1.1215   -1.1102    0.0430 S   0  0  0  0  0  0  0  0  0  0  0  0
   -2.4680    0.4530   -0.5118 P   0  0  0  0  0  0  0  0  0  0  0  0
   -2.7531    0.6862   -2.4339 S   0  0  0  0  0  0  0  0  0  0  0  0
   -1.9106    1.7760    0.1373 O   0  0  0  0  0  0  0  0  0  0  0  0
   -1.3216    1.9395    1.4493 C   0  0  0  0  0  0  0  0  0  0  0  0
   -2.2176    1.4409    2.5624 C   0  0  0  0  0  0  0  0  0  0  0  0
   -3.7845    0.1638    0.3288 O   0  0  0  0  0  0  0  0  0  0  0  0
   -4.8449   -0.6757   -0.1605 C   0  0  0  0  0  0  0  0  0  0  0  0
   -4.4275   -2.1284   -0.2663 C   0  0  0  0  0  0  0  0  0  0  0  0
    0.1194   -0.2153    3.6085 H   0  0  0  0  0  0  0  0  0  0  0  0
    0.2017   -1.7280    2.6956 H   0  0  0  0  0  0  0  0  0  0  0  0
    1.0019   -1.6007    4.2707 H   0  0  0  0  0  0  0  0  0  0  0  0
    2.6713   -1.4433    2.4424 H   0  0  0  0  0  0  0  0  0  0  0  0
    2.5762    0.1060    3.3250 H   0  0  0  0  0  0  0  0  0  0  0  0
    4.7915   -0.1186   -1.2242 H   0  0  0  0  0  0  0  0  0  0  0  0
    4.2460    1.4944   -1.7555 H   0  0  0  0  0  0  0  0  0  0  0  0
    6.6241    1.5799   -1.0265 H   0  0  0  0  0  0  0  0  0  0  0  0
    5.6110    2.5342    0.0701 H   0  0  0  0  0  0  0  0  0  0  0  0
    6.1751    0.9311    0.5588 H   0  0  0  0  0  0  0  0  0  0  0  0
    0.6324   -1.7947   -1.3993 H   0  0  0  0  0  0  0  0  0  0  0  0
   -0.6175   -0.8411   -2.2840 H   0  0  0  0  0  0  0  0  0  0  0  0
   -0.3565    1.4249    1.4586 H   0  0  0  0  0  0  0  0  0  0  0  0
   -1.1591    3.0168    1.5123 H   0  0  0  0  0  0  0  0  0  0  0  0
   -2.3272    0.3599    2.5040 H   0  0  0  0  0  0  0  0  0  0  0  0
   -1.7761    1.7059    3.5186 H   0  0  0  0  0  0  0  0  0  0  0  0
   -3.2006    1.8981    2.4845 H   0  0  0  0  0  0  0  0  0  0  0  0
   -5.6424   -0.5382    0.5710 H   0  0  0  0  0  0  0  0  0  0  0  0
   -5.1646   -0.2961   -1.1360 H   0  0  0  0  0  0  0  0  0  0  0  0
   -4.0029   -2.4713    0.6737 H   0  0  0  0  0  0  0  0  0  0  0  0
   -5.2950   -2.7325   -0.5118 H   0  0  0  0  0  0  0  0  0  0  0  0
   -3.6838   -2.2467   -1.0528 H   0  0  0  0  0  0  0  0  0  0  0  0
  1  2  1  0  0  0  0
  2  3  1  0  0  0  0
  3  4  2  0  0  0  0
  4  5  2  0  0  0  0
  4  6  2  0  0  0  0
  6  7  1  0  0  0  0
  7  8  1  0  0  0  0
  4  9  1  0  0  0  0
  9 10  1  0  0  0  0
 10 11  1  0  0  0  0
 11 12  1  0  0  0  0
 12 13  2  0  0  0  0
 12 14  2  0  0  0  0
 14 15  1  0  0  0  0
 15 16  1  0  0  0  0
 12 17  2  0  0  0  0
 17 18  1  0  0  0  0
 18 19  1  0  0  0  0
  1 20  1  0  0  0  0
  1 21  1  0  0  0  0
  1 22  1  0  0  0  0
  2 23  1  0  0  0  0
  2 24  1  0  0  0  0
  7 25  1  0  0  0  0
  7 26  1  0  0  0  0
  8 27  1  0  0  0  0
  8 28  1  0  0  0  0
  8 29  1  0  0  0  0
 10 30  1  0  0  0  0
 10 31  1  0  0  0  0
 15 32  1  0  0  0  0
 15 33  1  0  0  0  0
 16 34  1  0  0  0  0
 16 35  1  0  0  0  0
 16 36  1  0  0  0  0
 18 37  1  0  0  0  0
 18 38  1  0  0  0  0
 19 39  1  0  0  0  0
 19 40  1  0  0  0  0
 19 41  1  0  0  0  0
M  END
