 xtb: 6.7.1 (edcfbbe)
          04092505203D

 41 40  0     0  0            999 V2000
    3.0029   -1.4987   -2.4670 C   0  0  0  0  0  0  0  0  0  0  0  0
    2.0862   -0.2964   -2.5265 C   0  0  0  0  0  0  0  0  0  0  0  0
    2.2739    0.6048   -1.4120 O   0  0  0  0  0  0  0  0  0  0  0  0
    2.1736    0.2437    0.1159 P   0  0  0  0  0  0  0  0  0  0  0  0
    1.7810    1.7867    1.2565 S   0  0  0  0  0  0  0  0  0  0  0  0
    3.6304   -0.3594    0.3674 O   0  0  0  0  0  0  0  0  0  0  0  0
    4.2340   -0.4545    1.6657 C   0  0  0  0  0  0  0  0  0  0  0  0
    3.5006   -1.4166    2.5790 C   0  0  0  0  0  0  0  0  0  0  0  0
    0.8700   -1.4328    0.2869 S   0  0  0  0  0  0  0  0  0  0  0  0
   -0.2591   -0.8271    1.5814 C   0  0  0  0  0  0  0  0  0  0  0  0
   -2.0134   -1.0894    1.2091 S   0  0  0  0  0  0  0  0  0  0  0  0
   -2.3846    0.3120   -0.3467 P   0  0  0  0  0  0  0  0  0  0  0  0
   -0.8393    1.2106   -1.1773 S   0  0  0  0  0  0  0  0  0  0  0  0
   -3.5341    1.2394    0.2254 O   0  0  0  0  0  0  0  0  0  0  0  0
   -3.5128    1.8685    1.5177 C   0  0  0  0  0  0  0  0  0  0  0  0
   -2.4153    2.9077    1.6418 C   0  0  0  0  0  0  0  0  0  0  0  0
   -3.3050   -0.4494   -1.3821 O   0  0  0  0  0  0  0  0  0  0  0  0
   -2.7620   -1.1458   -2.5170 C   0  0  0  0  0  0  0  0  0  0  0  0
   -2.0957   -2.4476   -2.1159 C   0  0  0  0  0  0  0  0  0  0  0  0
    2.7607   -2.1146   -1.6021 H   0  0  0  0  0  0  0  0  0  0  0  0
    2.8715   -2.0885   -3.3688 H   0  0  0  0  0  0  0  0  0  0  0  0
    4.0381   -1.1765   -2.3912 H   0  0  0  0  0  0  0  0  0  0  0  0
    1.0347   -0.5962   -2.5435 H   0  0  0  0  0  0  0  0  0  0  0  0
    2.2954    0.3344   -3.3916 H   0  0  0  0  0  0  0  0  0  0  0  0
    5.2490   -0.7945    1.4545 H   0  0  0  0  0  0  0  0  0  0  0  0
    4.2626    0.5466    2.1081 H   0  0  0  0  0  0  0  0  0  0  0  0
    2.5288   -1.0032    2.8451 H   0  0  0  0  0  0  0  0  0  0  0  0
    3.3595   -2.3752    2.0862 H   0  0  0  0  0  0  0  0  0  0  0  0
    4.0796   -1.5590    3.4858 H   0  0  0  0  0  0  0  0  0  0  0  0
   -0.0494    0.2343    1.7404 H   0  0  0  0  0  0  0  0  0  0  0  0
   -0.0845   -1.4031    2.4870 H   0  0  0  0  0  0  0  0  0  0  0  0
   -4.4996    2.3283    1.5950 H   0  0  0  0  0  0  0  0  0  0  0  0
   -3.4065    1.0944    2.2841 H   0  0  0  0  0  0  0  0  0  0  0  0
   -1.4302    2.4464    1.5711 H   0  0  0  0  0  0  0  0  0  0  0  0
   -2.5000    3.6437    0.8457 H   0  0  0  0  0  0  0  0  0  0  0  0
   -2.4959    3.4075    2.6017 H   0  0  0  0  0  0  0  0  0  0  0  0
   -3.6276   -1.3186   -3.1581 H   0  0  0  0  0  0  0  0  0  0  0  0
   -2.0527   -0.4835   -3.0257 H   0  0  0  0  0  0  0  0  0  0  0  0
   -2.7804   -3.0528   -1.5278 H   0  0  0  0  0  0  0  0  0  0  0  0
   -1.8079   -2.9932   -3.0087 H   0  0  0  0  0  0  0  0  0  0  0  0
   -1.2042   -2.2512   -1.5210 H   0  0  0  0  0  0  0  0  0  0  0  0
  1  2  1  0  0  0  0
  2  3  1  0  0  0  0
  3  4  2  0  0  0  0
  4  5  2  0  0  0  0
  4  6  2  0  0  0  0
  6  7  1  0  0  0  0
  7  8  1  0  0  0  0
  4  9  1  0  0  0  0
  9 10  1  0  0  0  0
 10 11  1  0  0  0  0
 11 12  1  0  0  0  0
 12 13  2  0  0  0  0
 12 14  2  0  0  0  0
 14 15  1  0  0  0  0
 15 16  1  0  0  0  0
 12 17  2  0  0  0  0
 17 18  1  0  0  0  0
 18 19  1  0  0  0  0
  1 20  1  0  0  0  0
  1 21  1  0  0  0  0
  1 22  1  0  0  0  0
  2 23  1  0  0  0  0
  2 24  1  0  0  0  0
  7 25  1  0  0  0  0
  7 26  1  0  0  0  0
  8 27  1  0  0  0  0
  8 28  1  0  0  0  0
  8 29  1  0  0  0  0
 10 30  1  0  0  0  0
 10 31  1  0  0  0  0
 15 32  1  0  0  0  0
 15 33  1  0  0  0  0
 16 34  1  0  0  0  0
 16 35  1  0  0  0  0
 16 36  1  0  0  0  0
 18 37  1  0  0  0  0
 18 38  1  0  0  0  0
 19 39  1  0  0  0  0
 19 40  1  0  0  0  0
 19 41  1  0  0  0  0
M  END
