  22
 
 C          3.4926043038       -1.1487729858        0.3642953335
 C          2.7424949354       -0.0373439519       -0.3506252820
 O          1.4714672026        0.1145164561        0.2591990830
 C          0.6881689098        1.1287972183       -0.3271220663
 C         -0.6878708915        1.1288594085        0.3266030839
 O         -1.4712165470        0.1145835668       -0.2596624767
 C         -2.7418175341       -0.0380039758        0.3508478663
 C         -3.4921711709       -1.1489719949       -0.3645236621
 H          4.4681849044       -1.2856176857       -0.0909579358
 H          3.6146899670       -0.8947732615        1.4129632118
 H          2.9277115340       -2.0734836519        0.2954704940
 H          2.6112518781       -0.2810230244       -1.4157615519
 H          3.2963328220        0.9118107967       -0.2821372084
 H          1.1709462894        2.1066687126       -0.1812704845
 H          0.5706857214        0.9451719030       -1.4044523012
 H         -1.1705885653        2.1067535870        0.1806766967
 H         -0.5704123232        0.9452966872        1.4039481675
 H         -2.6098372420       -0.2825279370        1.4156817068
 H         -3.2958667554        0.9110825056        0.2835155143
 H         -4.4674546665       -1.2863940202        0.0911627620
 H         -3.6148951749       -0.8941864613       -1.4128830122
 H         -2.9270761763       -2.0735948960       -0.2967620898
          22
        -28.10981847
 C          3.1131041396       -0.5111232915        0.7821981410
 C          2.4271514843       -0.4398190692       -0.5791999659
 O          1.0259616019       -0.2354426501       -0.5125541089
 C          0.6331946821        1.0538052594       -0.0763702751
 C         -0.8532540533        1.2697672984       -0.3863990256
 O         -1.7180559560        0.7540713571        0.6023276287
 C         -1.8546637124       -0.6635201277        0.6256007283
 C         -2.7910276315       -1.1932016799       -0.4574751092
 H          4.1491964885       -0.8043828777        0.6443486663
 H          3.0877898902        0.4531874256        1.2833783909
 H          2.6168955424       -1.2469249847        1.4101383076
 H          2.5324021094       -1.3924373991       -1.1030640270
 H          2.8815670118        0.3550667415       -1.1885145826
 H          0.7913541448        1.1662515451        1.0040975871
 H          1.2246206011        1.8134447764       -0.6060053767
 H         -1.0741666173        0.8400025261       -1.3697219692
 H         -1.0611878786        2.3411160646       -0.4024095848
 H         -0.8701217608       -1.1347951608        0.5378403833
 H         -2.2694912251       -0.8753958150        1.6140328226
 H         -2.9559361293       -2.2546878461       -0.3006845451
 H         -3.7436672921       -0.6716791464       -0.4105404783
 H         -2.3609306970       -1.0526251630       -1.4458336559
