 xtb: 6.7.1 (edcfbbe)
          04092505213D

 41 40  0     0  0            999 V2000
    2.6275    1.2088   -2.4324 C   0  0  0  0  0  0  0  0  0  0  0  0
    3.3187    0.1595   -1.5865 C   0  0  0  0  0  0  0  0  0  0  0  0
    2.3808   -0.6141   -0.8089 O   0  0  0  0  0  0  0  0  0  0  0  0
    1.9620   -0.1720    0.6733 P   0  0  0  0  0  0  0  0  0  0  0  0
    1.0442    1.5437    0.8796 S   0  0  0  0  0  0  0  0  0  0  0  0
    3.2935   -0.1407    1.5318 O   0  0  0  0  0  0  0  0  0  0  0  0
    4.1749   -1.2900    1.6443 C   0  0  0  0  0  0  0  0  0  0  0  0
    5.5918   -0.7837    1.8220 C   0  0  0  0  0  0  0  0  0  0  0  0
    1.0170   -1.9441    1.2898 S   0  0  0  0  0  0  0  0  0  0  0  0
   -0.5074   -1.8930    0.3085 C   0  0  0  0  0  0  0  0  0  0  0  0
   -1.7625   -0.7508    0.9612 S   0  0  0  0  0  0  0  0  0  0  0  0
   -2.0125    0.5409   -0.7181 P   0  0  0  0  0  0  0  0  0  0  0  0
   -0.8152    0.2298   -2.2321 S   0  0  0  0  0  0  0  0  0  0  0  0
   -1.9623    2.0185   -0.1859 O   0  0  0  0  0  0  0  0  0  0  0  0
   -2.3674    2.4896    1.1196 C   0  0  0  0  0  0  0  0  0  0  0  0
   -3.7802    2.0828    1.4754 C   0  0  0  0  0  0  0  0  0  0  0  0
   -3.5553    0.4134   -1.1083 O   0  0  0  0  0  0  0  0  0  0  0  0
   -4.0575   -0.5644   -2.0310 C   0  0  0  0  0  0  0  0  0  0  0  0
   -3.9603   -1.9770   -1.4895 C   0  0  0  0  0  0  0  0  0  0  0  0
    1.8689    0.7466   -3.0596 H   0  0  0  0  0  0  0  0  0  0  0  0
    2.1396    1.9483   -1.8000 H   0  0  0  0  0  0  0  0  0  0  0  0
    3.3618    1.7059   -3.0582 H   0  0  0  0  0  0  0  0  0  0  0  0
    4.0425    0.6253   -0.9099 H   0  0  0  0  0  0  0  0  0  0  0  0
    3.8171   -0.5826   -2.2134 H   0  0  0  0  0  0  0  0  0  0  0  0
    3.8445   -1.8637    2.5125 H   0  0  0  0  0  0  0  0  0  0  0  0
    4.0768   -1.9063    0.7470 H   0  0  0  0  0  0  0  0  0  0  0  0
    5.9130   -0.2277    0.9452 H   0  0  0  0  0  0  0  0  0  0  0  0
    5.6444   -0.1301    2.6880 H   0  0  0  0  0  0  0  0  0  0  0  0
    6.2538   -1.6307    1.9699 H   0  0  0  0  0  0  0  0  0  0  0  0
   -0.9106   -2.9010    0.3645 H   0  0  0  0  0  0  0  0  0  0  0  0
   -0.2690   -1.6070   -0.7202 H   0  0  0  0  0  0  0  0  0  0  0  0
   -1.6448    2.1168    1.8511 H   0  0  0  0  0  0  0  0  0  0  0  0
   -2.2633    3.5721    1.0329 H   0  0  0  0  0  0  0  0  0  0  0  0
   -4.4712    2.4148    0.7050 H   0  0  0  0  0  0  0  0  0  0  0  0
   -3.8477    0.9999    1.5691 H   0  0  0  0  0  0  0  0  0  0  0  0
   -4.0495    2.5362    2.4243 H   0  0  0  0  0  0  0  0  0  0  0  0
   -5.0948   -0.2645   -2.1863 H   0  0  0  0  0  0  0  0  0  0  0  0
   -3.5009   -0.4735   -2.9695 H   0  0  0  0  0  0  0  0  0  0  0  0
   -4.4888   -2.6512   -2.1558 H   0  0  0  0  0  0  0  0  0  0  0  0
   -2.9169   -2.2829   -1.4356 H   0  0  0  0  0  0  0  0  0  0  0  0
   -4.3992   -2.0329   -0.4967 H   0  0  0  0  0  0  0  0  0  0  0  0
  1  2  1  0  0  0  0
  2  3  1  0  0  0  0
  3  4  1  0  0  0  0
  4  5  2  0  0  0  0
  4  6  2  0  0  0  0
  6  7  1  0  0  0  0
  7  8  1  0  0  0  0
  4  9  1  0  0  0  0
  9 10  1  0  0  0  0
 10 11  1  0  0  0  0
 11 12  1  0  0  0  0
 12 13  2  0  0  0  0
 12 14  2  0  0  0  0
 14 15  1  0  0  0  0
 15 16  1  0  0  0  0
 12 17  2  0  0  0  0
 17 18  1  0  0  0  0
 18 19  1  0  0  0  0
  1 20  1  0  0  0  0
  1 21  1  0  0  0  0
  1 22  1  0  0  0  0
  2 23  1  0  0  0  0
  2 24  1  0  0  0  0
  7 25  1  0  0  0  0
  7 26  1  0  0  0  0
  8 27  1  0  0  0  0
  8 28  1  0  0  0  0
  8 29  1  0  0  0  0
 10 30  1  0  0  0  0
 10 31  1  0  0  0  0
 15 32  1  0  0  0  0
 15 33  1  0  0  0  0
 16 34  1  0  0  0  0
 16 35  1  0  0  0  0
 16 36  1  0  0  0  0
 18 37  1  0  0  0  0
 18 38  1  0  0  0  0
 19 39  1  0  0  0  0
 19 40  1  0  0  0  0
 19 41  1  0  0  0  0
M  END
