  21
 
 C         -3.1732544540       -0.0023663024       -0.8149799794
 C         -2.4519449494        0.0003946458        0.5350952034
 C         -0.9622815501        0.0002204107        0.3408617910
 C         -0.2586599776        1.1922377441        0.2267317048
 C          1.1075270850        1.1921957199        0.0136995855
 C          1.8125327730       -0.0001322463       -0.0941772883
 C          1.1072532006       -1.1922825997        0.0139327039
 C         -0.2589311362       -1.1920011213        0.2269714808
 C          3.2981006806       -0.0002860916       -0.2926834858
 H         -4.2507595974       -0.0014817272       -0.6698572872
 H         -2.8988288691       -0.8854309646       -1.3874909212
 H         -2.8979237217        0.8777932783       -1.3914922808
 H         -2.7495647991       -0.8832614928        1.1027947090
 H         -2.7497992841        0.8862683366        1.0991874700
 H         -0.7870878299        2.1318730091        0.3083257618
 H          1.6356584147        2.1317717232       -0.0690977018
 H          1.6351596662       -2.1320170358       -0.0686619512
 H         -0.7875934455       -2.1314791601        0.3087888551
 H          3.8001829883        0.0004635041        0.6750465447
 H          3.6158610881       -0.8863555832       -0.8366476582
 H          3.6158459599        0.8849701141       -0.8379831708
          21
        -25.38681122
 C         -3.1588329474       -0.0092920021        0.8415190200
 C         -2.4547987918        0.0061171709       -0.5173454901
 C         -0.9630554089        0.0042569644       -0.3388890772
 C         -0.2574800027        1.1950771543       -0.2270099052
 C          1.1098197375        1.1928243374       -0.0202884420
 C          1.8131470869       -0.0005462650        0.0836314909
 C          1.1064349708       -1.1917050341       -0.0266547426
 C         -0.2605824879       -1.1892273785       -0.2335255551
 C          3.2985419406       -0.0050560153        0.2837141751
 H         -4.2380933076       -0.0098142930        0.7106621968
 H         -2.8779700788        0.8666417375        1.4218725232
 H         -2.8749356356       -0.8962874959        1.4033230805
 H         -2.7593127448        0.8970976865       -1.0698489213
 H         -2.7589699874       -0.8724942603       -1.0895512808
 H         -0.7851612471        2.1353892641       -0.3041767893
 H          1.6393551750        2.1315280986        0.0623397045
 H          1.6337959427       -2.1320014615        0.0509910329
 H         -0.7907470791       -2.1276765843       -0.3160149058
 H          3.6071550940       -0.8702530995        0.8655585008
 H          3.8026814032       -0.0507788110       -0.6817983216
 H          3.6232617972        0.8994656476        0.7919508971
