 xtb: 6.7.1 (edcfbbe)
          04092505213D

 41 40  0     0  0            999 V2000
    3.1673   -1.7507   -2.8290 C   0  0  0  0  0  0  0  0  0  0  0  0
    3.9071   -0.5612   -2.2484 C   0  0  0  0  0  0  0  0  0  0  0  0
    3.7259   -0.4610   -0.8283 O   0  0  0  0  0  0  0  0  0  0  0  0
    2.4022    0.0896   -0.1521 P   0  0  0  0  0  0  0  0  0  0  0  0
    1.4506    1.4136   -1.2532 S   0  0  0  0  0  0  0  0  0  0  0  0
    3.1281    0.5308    1.1776 O   0  0  0  0  0  0  0  0  0  0  0  0
    2.5283    1.0505    2.3750 C   0  0  0  0  0  0  0  0  0  0  0  0
    2.2997    2.5452    2.2693 C   0  0  0  0  0  0  0  0  0  0  0  0
    1.2754   -1.6166    0.4251 S   0  0  0  0  0  0  0  0  0  0  0  0
   -0.0298   -1.5840   -0.8582 C   0  0  0  0  0  0  0  0  0  0  0  0
   -1.6998   -1.7564   -0.1960 S   0  0  0  0  0  0  0  0  0  0  0  0
   -2.0430    0.2810    0.3310 P   0  0  0  0  0  0  0  0  0  0  0  0
   -0.9278    0.9860    1.7776 S   0  0  0  0  0  0  0  0  0  0  0  0
   -3.6068    0.3507    0.5972 O   0  0  0  0  0  0  0  0  0  0  0  0
   -4.1820    0.0628    1.8839 C   0  0  0  0  0  0  0  0  0  0  0  0
   -3.9978   -1.3873    2.2804 C   0  0  0  0  0  0  0  0  0  0  0  0
   -1.8705    1.1132   -0.9963 O   0  0  0  0  0  0  0  0  0  0  0  0
   -2.8658    1.2905   -2.0337 C   0  0  0  0  0  0  0  0  0  0  0  0
   -3.2111   -0.0008   -2.7449 C   0  0  0  0  0  0  0  0  0  0  0  0
    3.4017   -2.6490   -2.2636 H   0  0  0  0  0  0  0  0  0  0  0  0
    2.0940   -1.5742   -2.7904 H   0  0  0  0  0  0  0  0  0  0  0  0
    3.4644   -1.8884   -3.8638 H   0  0  0  0  0  0  0  0  0  0  0  0
    3.5695    0.3710   -2.7140 H   0  0  0  0  0  0  0  0  0  0  0  0
    4.9866   -0.6636   -2.3672 H   0  0  0  0  0  0  0  0  0  0  0  0
    1.5887    0.5301    2.5795 H   0  0  0  0  0  0  0  0  0  0  0  0
    3.2543    0.8145    3.1554 H   0  0  0  0  0  0  0  0  0  0  0  0
    1.9299    2.9171    3.2192 H   0  0  0  0  0  0  0  0  0  0  0  0
    3.2265    3.0508    2.0122 H   0  0  0  0  0  0  0  0  0  0  0  0
    1.5562    2.7576    1.5031 H   0  0  0  0  0  0  0  0  0  0  0  0
    0.1166   -2.4407   -1.5105 H   0  0  0  0  0  0  0  0  0  0  0  0
    0.0517   -0.6352   -1.3977 H   0  0  0  0  0  0  0  0  0  0  0  0
   -3.7226    0.7255    2.6242 H   0  0  0  0  0  0  0  0  0  0  0  0
   -5.2353    0.3177    1.7590 H   0  0  0  0  0  0  0  0  0  0  0  0
   -4.5484   -1.5817    3.1951 H   0  0  0  0  0  0  0  0  0  0  0  0
   -4.3574   -2.0457    1.4938 H   0  0  0  0  0  0  0  0  0  0  0  0
   -2.9425   -1.5936    2.4547 H   0  0  0  0  0  0  0  0  0  0  0  0
   -3.7527    1.7366   -1.5803 H   0  0  0  0  0  0  0  0  0  0  0  0
   -2.3897    2.0066   -2.7060 H   0  0  0  0  0  0  0  0  0  0  0  0
   -3.8923    0.2225   -3.5603 H   0  0  0  0  0  0  0  0  0  0  0  0
   -2.3150   -0.4649   -3.1491 H   0  0  0  0  0  0  0  0  0  0  0  0
   -3.6929   -0.6949   -2.0600 H   0  0  0  0  0  0  0  0  0  0  0  0
  1  2  1  0  0  0  0
  2  3  1  0  0  0  0
  3  4  2  0  0  0  0
  4  5  2  0  0  0  0
  4  6  2  0  0  0  0
  6  7  1  0  0  0  0
  7  8  1  0  0  0  0
  4  9  1  0  0  0  0
  9 10  1  0  0  0  0
 10 11  1  0  0  0  0
 11 12  1  0  0  0  0
 12 13  2  0  0  0  0
 12 14  2  0  0  0  0
 14 15  1  0  0  0  0
 15 16  1  0  0  0  0
 12 17  2  0  0  0  0
 17 18  1  0  0  0  0
 18 19  1  0  0  0  0
  1 20  1  0  0  0  0
  1 21  1  0  0  0  0
  1 22  1  0  0  0  0
  2 23  1  0  0  0  0
  2 24  1  0  0  0  0
  7 25  1  0  0  0  0
  7 26  1  0  0  0  0
  8 27  1  0  0  0  0
  8 28  1  0  0  0  0
  8 29  1  0  0  0  0
 10 30  1  0  0  0  0
 10 31  1  0  0  0  0
 15 32  1  0  0  0  0
 15 33  1  0  0  0  0
 16 34  1  0  0  0  0
 16 35  1  0  0  0  0
 16 36  1  0  0  0  0
 18 37  1  0  0  0  0
 18 38  1  0  0  0  0
 19 39  1  0  0  0  0
 19 40  1  0  0  0  0
 19 41  1  0  0  0  0
M  END
