 xtb: 6.7.1 (edcfbbe)
          04092514023D

 41 40  0     0  0            999 V2000
    4.8871   -1.4352   -0.9008 C   0  0  0  0  0  0  0  0  0  0  0  0
    4.7893    0.0059   -0.4429 C   0  0  0  0  0  0  0  0  0  0  0  0
    3.5914    0.2644    0.3126 O   0  0  0  0  0  0  0  0  0  0  0  0
    2.1393    0.3502   -0.3360 P   0  0  0  0  0  0  0  0  0  0  0  0
    2.0979    1.1217   -2.1430 S   0  0  0  0  0  0  0  0  0  0  0  0
    1.3528    1.1472    0.7859 O   0  0  0  0  0  0  0  0  0  0  0  0
    1.4339    2.5877    0.8562 C   0  0  0  0  0  0  0  0  0  0  0  0
    0.6309    3.0384    2.0571 C   0  0  0  0  0  0  0  0  0  0  0  0
    1.3353   -1.5653   -0.0650 S   0  0  0  0  0  0  0  0  0  0  0  0
   -0.0105   -1.5244   -1.3072 C   0  0  0  0  0  0  0  0  0  0  0  0
   -1.6092   -1.9657   -0.6057 S   0  0  0  0  0  0  0  0  0  0  0  0
   -2.1570   -0.0573    0.1685 P   0  0  0  0  0  0  0  0  0  0  0  0
   -1.7053    1.4739   -0.9658 S   0  0  0  0  0  0  0  0  0  0  0  0
   -1.4623    0.1136    1.5715 O   0  0  0  0  0  0  0  0  0  0  0  0
   -1.5955   -0.8481    2.6500 C   0  0  0  0  0  0  0  0  0  0  0  0
   -0.4045   -0.6762    3.5693 C   0  0  0  0  0  0  0  0  0  0  0  0
   -3.6712   -0.2787    0.5997 O   0  0  0  0  0  0  0  0  0  0  0  0
   -4.7154   -0.8695   -0.1978 C   0  0  0  0  0  0  0  0  0  0  0  0
   -4.9634   -0.1203   -1.4902 C   0  0  0  0  0  0  0  0  0  0  0  0
    5.8540   -1.5912   -1.3698 H   0  0  0  0  0  0  0  0  0  0  0  0
    4.7830   -2.1121   -0.0570 H   0  0  0  0  0  0  0  0  0  0  0  0
    4.1048   -1.6516   -1.6266 H   0  0  0  0  0  0  0  0  0  0  0  0
    4.8085    0.6840   -1.3020 H   0  0  0  0  0  0  0  0  0  0  0  0
    5.5930    0.2599    0.2502 H   0  0  0  0  0  0  0  0  0  0  0  0
    2.4855    2.8758    0.9419 H   0  0  0  0  0  0  0  0  0  0  0  0
    1.0255    2.9963   -0.0745 H   0  0  0  0  0  0  0  0  0  0  0  0
    1.0546    2.6221    2.9663 H   0  0  0  0  0  0  0  0  0  0  0  0
    0.6484    4.1222    2.1096 H   0  0  0  0  0  0  0  0  0  0  0  0
   -0.3971    2.6996    1.9546 H   0  0  0  0  0  0  0  0  0  0  0  0
    0.2074   -2.2716   -2.0658 H   0  0  0  0  0  0  0  0  0  0  0  0
   -0.0628   -0.5226   -1.7438 H   0  0  0  0  0  0  0  0  0  0  0  0
   -2.5365   -0.6416    3.1633 H   0  0  0  0  0  0  0  0  0  0  0  0
   -1.6281   -1.8546    2.2220 H   0  0  0  0  0  0  0  0  0  0  0  0
    0.5183   -0.8442    3.0190 H   0  0  0  0  0  0  0  0  0  0  0  0
   -0.3894    0.3314    3.9751 H   0  0  0  0  0  0  0  0  0  0  0  0
   -0.4739   -1.3919    4.3819 H   0  0  0  0  0  0  0  0  0  0  0  0
   -4.4489   -1.9109   -0.3973 H   0  0  0  0  0  0  0  0  0  0  0  0
   -5.5881   -0.8290    0.4571 H   0  0  0  0  0  0  0  0  0  0  0  0
   -5.8202   -0.5529   -1.9973 H   0  0  0  0  0  0  0  0  0  0  0  0
   -5.1589    0.9303   -1.2885 H   0  0  0  0  0  0  0  0  0  0  0  0
   -4.0931   -0.1890   -2.1411 H   0  0  0  0  0  0  0  0  0  0  0  0
  1  2  1  0  0  0  0
  2  3  1  0  0  0  0
  3  4  2  0  0  0  0
  4  5  2  0  0  0  0
  4  6  2  0  0  0  0
  6  7  1  0  0  0  0
  7  8  1  0  0  0  0
  4  9  1  0  0  0  0
  9 10  1  0  0  0  0
 10 11  1  0  0  0  0
 11 12  1  0  0  0  0
 12 13  2  0  0  0  0
 12 14  2  0  0  0  0
 14 15  1  0  0  0  0
 15 16  1  0  0  0  0
 12 17  2  0  0  0  0
 17 18  1  0  0  0  0
 18 19  1  0  0  0  0
  1 20  1  0  0  0  0
  1 21  1  0  0  0  0
  1 22  1  0  0  0  0
  2 23  1  0  0  0  0
  2 24  1  0  0  0  0
  7 25  1  0  0  0  0
  7 26  1  0  0  0  0
  8 27  1  0  0  0  0
  8 28  1  0  0  0  0
  8 29  1  0  0  0  0
 10 30  1  0  0  0  0
 10 31  1  0  0  0  0
 15 32  1  0  0  0  0
 15 33  1  0  0  0  0
 16 34  1  0  0  0  0
 16 35  1  0  0  0  0
 16 36  1  0  0  0  0
 18 37  1  0  0  0  0
 18 38  1  0  0  0  0
 19 39  1  0  0  0  0
 19 40  1  0  0  0  0
 19 41  1  0  0  0  0
M  END
