 xtb: 6.7.1 (edcfbbe)
          04092505203D

 41 40  0     0  0            999 V2000
    3.5959   -1.6946   -2.5995 C   0  0  0  0  0  0  0  0  0  0  0  0
    3.9896   -0.2798   -2.2292 C   0  0  0  0  0  0  0  0  0  0  0  0
    3.5973    0.0622   -0.8873 O   0  0  0  0  0  0  0  0  0  0  0  0
    2.0771    0.1499   -0.4279 P   0  0  0  0  0  0  0  0  0  0  0  0
    0.8801    0.9928   -1.7261 S   0  0  0  0  0  0  0  0  0  0  0  0
    2.1761    0.9795    0.9058 O   0  0  0  0  0  0  0  0  0  0  0  0
    3.0696    0.6413    1.9988 C   0  0  0  0  0  0  0  0  0  0  0  0
    2.6072    1.4094    3.2192 C   0  0  0  0  0  0  0  0  0  0  0  0
    1.6691   -1.8468    0.1738 S   0  0  0  0  0  0  0  0  0  0  0  0
    0.0365   -1.6197    0.9264 C   0  0  0  0  0  0  0  0  0  0  0  0
   -1.3134   -1.4307   -0.2794 S   0  0  0  0  0  0  0  0  0  0  0  0
   -2.0385    0.4963    0.2664 P   0  0  0  0  0  0  0  0  0  0  0  0
   -1.0093    1.4596    1.6245 S   0  0  0  0  0  0  0  0  0  0  0  0
   -3.5572    0.2569    0.6985 O   0  0  0  0  0  0  0  0  0  0  0  0
   -3.9587   -0.0659    2.0380 C   0  0  0  0  0  0  0  0  0  0  0  0
   -3.4951   -1.4438    2.4673 C   0  0  0  0  0  0  0  0  0  0  0  0
   -2.2386    1.3187   -1.0577 O   0  0  0  0  0  0  0  0  0  0  0  0
   -2.5643    0.7972   -2.3669 C   0  0  0  0  0  0  0  0  0  0  0  0
   -3.7988   -0.0769   -2.3590 C   0  0  0  0  0  0  0  0  0  0  0  0
    4.0215   -1.9430   -3.5664 H   0  0  0  0  0  0  0  0  0  0  0  0
    3.9575   -2.3970   -1.8527 H   0  0  0  0  0  0  0  0  0  0  0  0
    2.5113   -1.7736   -2.6617 H   0  0  0  0  0  0  0  0  0  0  0  0
    3.5316    0.4397   -2.9149 H   0  0  0  0  0  0  0  0  0  0  0  0
    5.0727   -0.1493   -2.2214 H   0  0  0  0  0  0  0  0  0  0  0  0
    3.0283   -0.4397    2.1619 H   0  0  0  0  0  0  0  0  0  0  0  0
    4.0813    0.9223    1.7007 H   0  0  0  0  0  0  0  0  0  0  0  0
    3.2228    1.1359    4.0696 H   0  0  0  0  0  0  0  0  0  0  0  0
    2.6870    2.4779    3.0408 H   0  0  0  0  0  0  0  0  0  0  0  0
    1.5658    1.1808    3.4334 H   0  0  0  0  0  0  0  0  0  0  0  0
    0.0468   -0.7331    1.5687 H   0  0  0  0  0  0  0  0  0  0  0  0
   -0.1464   -2.5285    1.4938 H   0  0  0  0  0  0  0  0  0  0  0  0
   -3.5626    0.7006    2.7121 H   0  0  0  0  0  0  0  0  0  0  0  0
   -5.0472   -0.0012    2.0035 H   0  0  0  0  0  0  0  0  0  0  0  0
   -3.7754   -2.1863    1.7246 H   0  0  0  0  0  0  0  0  0  0  0  0
   -2.4132   -1.4502    2.5877 H   0  0  0  0  0  0  0  0  0  0  0  0
   -3.9545   -1.6938    3.4182 H   0  0  0  0  0  0  0  0  0  0  0  0
   -2.7074    1.7007   -2.9614 H   0  0  0  0  0  0  0  0  0  0  0  0
   -1.6898    0.2565   -2.7400 H   0  0  0  0  0  0  0  0  0  0  0  0
   -4.6383    0.4634   -1.9293 H   0  0  0  0  0  0  0  0  0  0  0  0
   -4.0346   -0.3617   -3.3796 H   0  0  0  0  0  0  0  0  0  0  0  0
   -3.6196   -0.9771   -1.7731 H   0  0  0  0  0  0  0  0  0  0  0  0
  1  2  1  0  0  0  0
  2  3  1  0  0  0  0
  3  4  2  0  0  0  0
  4  5  2  0  0  0  0
  4  6  2  0  0  0  0
  6  7  1  0  0  0  0
  7  8  1  0  0  0  0
  4  9  1  0  0  0  0
  9 10  1  0  0  0  0
 10 11  1  0  0  0  0
 11 12  1  0  0  0  0
 12 13  2  0  0  0  0
 12 14  2  0  0  0  0
 14 15  1  0  0  0  0
 15 16  1  0  0  0  0
 12 17  2  0  0  0  0
 17 18  1  0  0  0  0
 18 19  1  0  0  0  0
  1 20  1  0  0  0  0
  1 21  1  0  0  0  0
  1 22  1  0  0  0  0
  2 23  1  0  0  0  0
  2 24  1  0  0  0  0
  7 25  1  0  0  0  0
  7 26  1  0  0  0  0
  8 27  1  0  0  0  0
  8 28  1  0  0  0  0
  8 29  1  0  0  0  0
 10 30  1  0  0  0  0
 10 31  1  0  0  0  0
 15 32  1  0  0  0  0
 15 33  1  0  0  0  0
 16 34  1  0  0  0  0
 16 35  1  0  0  0  0
 16 36  1  0  0  0  0
 18 37  1  0  0  0  0
 18 38  1  0  0  0  0
 19 39  1  0  0  0  0
 19 40  1  0  0  0  0
 19 41  1  0  0  0  0
M  END
