 xtb: 6.7.1 (edcfbbe)
          04092505203D

 41 40  0     0  0            999 V2000
    3.0685    1.4991    2.8896 C   0  0  0  0  0  0  0  0  0  0  0  0
    1.6834    0.9844    2.5596 C   0  0  0  0  0  0  0  0  0  0  0  0
    1.4857    0.8517    1.1348 O   0  0  0  0  0  0  0  0  0  0  0  0
    2.2639   -0.2376    0.2860 P   0  0  0  0  0  0  0  0  0  0  0  0
    2.6922   -1.9120    1.2172 S   0  0  0  0  0  0  0  0  0  0  0  0
    3.5146    0.5919   -0.2349 O   0  0  0  0  0  0  0  0  0  0  0  0
    4.6816   -0.0401   -0.7888 C   0  0  0  0  0  0  0  0  0  0  0  0
    4.3972   -0.6940   -2.1256 C   0  0  0  0  0  0  0  0  0  0  0  0
    0.9871   -0.3747   -1.3935 S   0  0  0  0  0  0  0  0  0  0  0  0
   -0.1052   -1.6459   -0.6987 C   0  0  0  0  0  0  0  0  0  0  0  0
   -1.1620   -1.0273    0.6305 S   0  0  0  0  0  0  0  0  0  0  0  0
   -2.3414    0.2599   -0.6053 P   0  0  0  0  0  0  0  0  0  0  0  0
   -2.7022   -0.3836   -2.4132 S   0  0  0  0  0  0  0  0  0  0  0  0
   -1.5791    1.6410   -0.6074 O   0  0  0  0  0  0  0  0  0  0  0  0
   -1.3173    2.4057    0.5939 C   0  0  0  0  0  0  0  0  0  0  0  0
   -2.3220    3.5301    0.7374 C   0  0  0  0  0  0  0  0  0  0  0  0
   -3.6154    0.5719    0.2933 O   0  0  0  0  0  0  0  0  0  0  0  0
   -4.7951   -0.2535    0.2755 C   0  0  0  0  0  0  0  0  0  0  0  0
   -4.5397   -1.6411    0.8264 C   0  0  0  0  0  0  0  0  0  0  0  0
    3.2666    2.4207    2.3487 H   0  0  0  0  0  0  0  0  0  0  0  0
    3.1394    1.6820    3.9572 H   0  0  0  0  0  0  0  0  0  0  0  0
    3.8157    0.7581    2.6078 H   0  0  0  0  0  0  0  0  0  0  0  0
    0.9071    1.6849    2.8694 H   0  0  0  0  0  0  0  0  0  0  0  0
    1.5104    0.0082    3.0237 H   0  0  0  0  0  0  0  0  0  0  0  0
    5.4010    0.7743   -0.8832 H   0  0  0  0  0  0  0  0  0  0  0  0
    5.0472   -0.7809   -0.0703 H   0  0  0  0  0  0  0  0  0  0  0  0
    3.7217   -1.5382   -1.9920 H   0  0  0  0  0  0  0  0  0  0  0  0
    3.9340    0.0179   -2.8045 H   0  0  0  0  0  0  0  0  0  0  0  0
    5.3267   -1.0520   -2.5566 H   0  0  0  0  0  0  0  0  0  0  0  0
    0.4951   -2.4511   -0.2748 H   0  0  0  0  0  0  0  0  0  0  0  0
   -0.7276   -1.9995   -1.5206 H   0  0  0  0  0  0  0  0  0  0  0  0
   -1.3489    1.7318    1.4548 H   0  0  0  0  0  0  0  0  0  0  0  0
   -0.3024    2.7865    0.4618 H   0  0  0  0  0  0  0  0  0  0  0  0
   -3.3221    3.1255    0.8683 H   0  0  0  0  0  0  0  0  0  0  0  0
   -2.0615    4.1321    1.6022 H   0  0  0  0  0  0  0  0  0  0  0  0
   -2.3093    4.1538   -0.1521 H   0  0  0  0  0  0  0  0  0  0  0  0
   -5.5067    0.2986    0.8911 H   0  0  0  0  0  0  0  0  0  0  0  0
   -5.1581   -0.3103   -0.7551 H   0  0  0  0  0  0  0  0  0  0  0  0
   -3.8863   -2.1952    0.1542 H   0  0  0  0  0  0  0  0  0  0  0  0
   -4.0680   -1.5815    1.8041 H   0  0  0  0  0  0  0  0  0  0  0  0
   -5.4834   -2.1702    0.9124 H   0  0  0  0  0  0  0  0  0  0  0  0
  1  2  1  0  0  0  0
  2  3  1  0  0  0  0
  3  4  2  0  0  0  0
  4  5  2  0  0  0  0
  4  6  2  0  0  0  0
  6  7  1  0  0  0  0
  7  8  1  0  0  0  0
  4  9  1  0  0  0  0
  9 10  1  0  0  0  0
 10 11  1  0  0  0  0
 11 12  1  0  0  0  0
 12 13  2  0  0  0  0
 12 14  2  0  0  0  0
 14 15  1  0  0  0  0
 15 16  1  0  0  0  0
 12 17  2  0  0  0  0
 17 18  1  0  0  0  0
 18 19  1  0  0  0  0
  1 20  1  0  0  0  0
  1 21  1  0  0  0  0
  1 22  1  0  0  0  0
  2 23  1  0  0  0  0
  2 24  1  0  0  0  0
  7 25  1  0  0  0  0
  7 26  1  0  0  0  0
  8 27  1  0  0  0  0
  8 28  1  0  0  0  0
  8 29  1  0  0  0  0
 10 30  1  0  0  0  0
 10 31  1  0  0  0  0
 15 32  1  0  0  0  0
 15 33  1  0  0  0  0
 16 34  1  0  0  0  0
 16 35  1  0  0  0  0
 16 36  1  0  0  0  0
 18 37  1  0  0  0  0
 18 38  1  0  0  0  0
 19 39  1  0  0  0  0
 19 40  1  0  0  0  0
 19 41  1  0  0  0  0
M  END
