 xtb: 6.7.1 (edcfbbe)
          04092505213D

 41 40  0     0  0            999 V2000
    5.6323   -0.3701   -0.9213 C   0  0  0  0  0  0  0  0  0  0  0  0
    4.4686   -1.2268   -1.3734 C   0  0  0  0  0  0  0  0  0  0  0  0
    3.3741   -1.1855   -0.4348 O   0  0  0  0  0  0  0  0  0  0  0  0
    2.4889    0.1120   -0.2185 P   0  0  0  0  0  0  0  0  0  0  0  0
    2.1341    1.1468   -1.8531 S   0  0  0  0  0  0  0  0  0  0  0  0
    3.2744    0.8840    0.9253 O   0  0  0  0  0  0  0  0  0  0  0  0
    3.0291    2.2661    1.2365 C   0  0  0  0  0  0  0  0  0  0  0  0
    1.6666    2.4699    1.8658 C   0  0  0  0  0  0  0  0  0  0  0  0
    0.8713   -0.8049    0.7593 S   0  0  0  0  0  0  0  0  0  0  0  0
    0.0064   -1.3141   -0.7724 C   0  0  0  0  0  0  0  0  0  0  0  0
   -1.6722   -1.8514   -0.4330 S   0  0  0  0  0  0  0  0  0  0  0  0
   -2.5680    0.0474    0.0118 P   0  0  0  0  0  0  0  0  0  0  0  0
   -1.4880    1.6243   -0.4039 S   0  0  0  0  0  0  0  0  0  0  0  0
   -3.0948   -0.1370    1.5035 O   0  0  0  0  0  0  0  0  0  0  0  0
   -2.2544   -0.3645    2.6493 C   0  0  0  0  0  0  0  0  0  0  0  0
   -1.7728    0.9427    3.2459 C   0  0  0  0  0  0  0  0  0  0  0  0
   -3.9246    0.0959   -0.7782 O   0  0  0  0  0  0  0  0  0  0  0  0
   -4.9757   -0.9018   -0.6787 C   0  0  0  0  0  0  0  0  0  0  0  0
   -4.9548   -1.8168   -1.8867 C   0  0  0  0  0  0  0  0  0  0  0  0
    5.9209   -0.6347    0.0925 H   0  0  0  0  0  0  0  0  0  0  0  0
    6.4734   -0.5234   -1.5901 H   0  0  0  0  0  0  0  0  0  0  0  0
    5.3490    0.6813   -0.9441 H   0  0  0  0  0  0  0  0  0  0  0  0
    4.7351   -2.2836   -1.4156 H   0  0  0  0  0  0  0  0  0  0  0  0
    4.0994   -0.8930   -2.3487 H   0  0  0  0  0  0  0  0  0  0  0  0
    3.8350    2.5261    1.9242 H   0  0  0  0  0  0  0  0  0  0  0  0
    3.1176    2.8519    0.3158 H   0  0  0  0  0  0  0  0  0  0  0  0
    0.8838    2.2716    1.1325 H   0  0  0  0  0  0  0  0  0  0  0  0
    1.5395    1.7986    2.7116 H   0  0  0  0  0  0  0  0  0  0  0  0
    1.5720    3.4975    2.2015 H   0  0  0  0  0  0  0  0  0  0  0  0
    0.5218   -2.1655   -1.2111 H   0  0  0  0  0  0  0  0  0  0  0  0
   -0.0094   -0.4592   -1.4532 H   0  0  0  0  0  0  0  0  0  0  0  0
   -2.8950   -0.9074    3.3469 H   0  0  0  0  0  0  0  0  0  0  0  0
   -1.4076   -0.9954    2.3594 H   0  0  0  0  0  0  0  0  0  0  0  0
   -1.1670    1.4833    2.5229 H   0  0  0  0  0  0  0  0  0  0  0  0
   -2.6200    1.5641    3.5221 H   0  0  0  0  0  0  0  0  0  0  0  0
   -1.1741    0.7348    4.1265 H   0  0  0  0  0  0  0  0  0  0  0  0
   -4.8524   -1.4607    0.2497 H   0  0  0  0  0  0  0  0  0  0  0  0
   -5.8972   -0.3188   -0.6394 H   0  0  0  0  0  0  0  0  0  0  0  0
   -5.0022   -1.2284   -2.7988 H   0  0  0  0  0  0  0  0  0  0  0  0
   -4.0464   -2.4141   -1.8988 H   0  0  0  0  0  0  0  0  0  0  0  0
   -5.8143   -2.4782   -1.8430 H   0  0  0  0  0  0  0  0  0  0  0  0
  1  2  1  0  0  0  0
  2  3  1  0  0  0  0
  3  4  2  0  0  0  0
  4  5  2  0  0  0  0
  4  6  2  0  0  0  0
  6  7  1  0  0  0  0
  7  8  1  0  0  0  0
  4  9  1  0  0  0  0
  9 10  1  0  0  0  0
 10 11  1  0  0  0  0
 11 12  1  0  0  0  0
 12 13  2  0  0  0  0
 12 14  2  0  0  0  0
 14 15  1  0  0  0  0
 15 16  1  0  0  0  0
 12 17  2  0  0  0  0
 17 18  1  0  0  0  0
 18 19  1  0  0  0  0
  1 20  1  0  0  0  0
  1 21  1  0  0  0  0
  1 22  1  0  0  0  0
  2 23  1  0  0  0  0
  2 24  1  0  0  0  0
  7 25  1  0  0  0  0
  7 26  1  0  0  0  0
  8 27  1  0  0  0  0
  8 28  1  0  0  0  0
  8 29  1  0  0  0  0
 10 30  1  0  0  0  0
 10 31  1  0  0  0  0
 15 32  1  0  0  0  0
 15 33  1  0  0  0  0
 16 34  1  0  0  0  0
 16 35  1  0  0  0  0
 16 36  1  0  0  0  0
 18 37  1  0  0  0  0
 18 38  1  0  0  0  0
 19 39  1  0  0  0  0
 19 40  1  0  0  0  0
 19 41  1  0  0  0  0
M  END
