 xtb: 6.7.1 (edcfbbe)
          04032520033D

 10  9  0     0  0            999 V2000
   -0.6755   -0.5133    0.3734 C   0  0  0  0  0  0  0  0  0  0  0  0
    0.6684   -0.5384   -0.3502 C   0  0  0  0  0  0  0  0  0  0  0  0
    1.4985    0.4685    0.1896 O   0  0  0  0  0  0  0  0  0  0  0  0
   -1.4919    0.4801   -0.2105 O   0  0  0  0  0  0  0  0  0  0  0  0
   -0.4896   -0.2964    1.4313 H   0  0  0  0  0  0  0  0  0  0  0  0
   -1.1522   -1.4978    0.2788 H   0  0  0  0  0  0  0  0  0  0  0  0
    0.4852   -0.3658   -1.4167 H   0  0  0  0  0  0  0  0  0  0  0  0
    1.1317   -1.5242   -0.2122 H   0  0  0  0  0  0  0  0  0  0  0  0
    2.2967    0.5509   -0.3493 H   0  0  0  0  0  0  0  0  0  0  0  0
   -2.2886    0.5972    0.3241 H   0  0  0  0  0  0  0  0  0  0  0  0
  1  2  1  0  0  0  0
  2  3  1  0  0  0  0
  1  4  1  0  0  0  0
  1  5  1  0  0  0  0
  1  6  1  0  0  0  0
  2  7  1  0  0  0  0
  2  8  1  0  0  0  0
  3  9  1  0  0  0  0
  4 10  1  0  0  0  0
M  END
