 xtb: 6.7.1 (edcfbbe)
          04092505213D

 41 40  0     0  0            999 V2000
    2.3718   -2.4964    2.5191 C   0  0  0  0  0  0  0  0  0  0  0  0
    1.3324   -1.6740    1.7831 C   0  0  0  0  0  0  0  0  0  0  0  0
    1.9660   -0.6188    1.0336 O   0  0  0  0  0  0  0  0  0  0  0  0
    2.2734   -0.7259   -0.5252 P   0  0  0  0  0  0  0  0  0  0  0  0
    2.8241   -2.4832   -1.1862 S   0  0  0  0  0  0  0  0  0  0  0  0
    3.2882    0.4752   -0.7258 O   0  0  0  0  0  0  0  0  0  0  0  0
    4.7173    0.2806   -0.6671 C   0  0  0  0  0  0  0  0  0  0  0  0
    5.1811   -0.0606    0.7330 C   0  0  0  0  0  0  0  0  0  0  0  0
    0.5801    0.1069   -1.4884 S   0  0  0  0  0  0  0  0  0  0  0  0
    0.3021    1.5096   -0.3585 C   0  0  0  0  0  0  0  0  0  0  0  0
   -0.7653    1.0846    1.0348 S   0  0  0  0  0  0  0  0  0  0  0  0
   -2.5532    0.8711   -0.1088 P   0  0  0  0  0  0  0  0  0  0  0  0
   -2.7980    2.1590   -1.5579 S   0  0  0  0  0  0  0  0  0  0  0  0
   -3.6992    0.8165    0.9924 O   0  0  0  0  0  0  0  0  0  0  0  0
   -4.3543    1.9943    1.5005 C   0  0  0  0  0  0  0  0  0  0  0  0
   -3.4080    2.8981    2.2633 C   0  0  0  0  0  0  0  0  0  0  0  0
   -2.5429   -0.6159   -0.6339 O   0  0  0  0  0  0  0  0  0  0  0  0
   -2.4511   -1.7653    0.2449 C   0  0  0  0  0  0  0  0  0  0  0  0
   -1.7874   -2.8911   -0.5215 C   0  0  0  0  0  0  0  0  0  0  0  0
    2.9824   -1.8538    3.1469 H   0  0  0  0  0  0  0  0  0  0  0  0
    1.8700   -3.2323    3.1388 H   0  0  0  0  0  0  0  0  0  0  0  0
    3.0110   -3.0130    1.8061 H   0  0  0  0  0  0  0  0  0  0  0  0
    0.6624   -1.1599    2.4753 H   0  0  0  0  0  0  0  0  0  0  0  0
    0.7549   -2.3075    1.1046 H   0  0  0  0  0  0  0  0  0  0  0  0
    4.9866   -0.5151   -1.3687 H   0  0  0  0  0  0  0  0  0  0  0  0
    5.1237    1.2325   -1.0118 H   0  0  0  0  0  0  0  0  0  0  0  0
    4.8287    0.6863    1.4395 H   0  0  0  0  0  0  0  0  0  0  0  0
    4.7904   -1.0346    1.0223 H   0  0  0  0  0  0  0  0  0  0  0  0
    6.2659   -0.0949    0.7535 H   0  0  0  0  0  0  0  0  0  0  0  0
   -0.1839    2.2844   -0.9520 H   0  0  0  0  0  0  0  0  0  0  0  0
    1.2524    1.8484    0.0434 H   0  0  0  0  0  0  0  0  0  0  0  0
   -4.8014    2.5291    0.6573 H   0  0  0  0  0  0  0  0  0  0  0  0
   -5.1382    1.5940    2.1450 H   0  0  0  0  0  0  0  0  0  0  0  0
   -2.6825    3.3381    1.5808 H   0  0  0  0  0  0  0  0  0  0  0  0
   -3.9762    3.6953    2.7316 H   0  0  0  0  0  0  0  0  0  0  0  0
   -2.8776    2.3348    3.0269 H   0  0  0  0  0  0  0  0  0  0  0  0
   -1.8754   -1.4848    1.1324 H   0  0  0  0  0  0  0  0  0  0  0  0
   -3.4667   -2.0301    0.5442 H   0  0  0  0  0  0  0  0  0  0  0  0
   -1.7180   -3.7678    0.1146 H   0  0  0  0  0  0  0  0  0  0  0  0
   -2.3692   -3.1325   -1.4062 H   0  0  0  0  0  0  0  0  0  0  0  0
   -0.7892   -2.5998   -0.8443 H   0  0  0  0  0  0  0  0  0  0  0  0
  1  2  1  0  0  0  0
  2  3  1  0  0  0  0
  3  4  2  0  0  0  0
  4  5  2  0  0  0  0
  4  6  2  0  0  0  0
  6  7  1  0  0  0  0
  7  8  1  0  0  0  0
  4  9  1  0  0  0  0
  9 10  1  0  0  0  0
 10 11  1  0  0  0  0
 11 12  1  0  0  0  0
 12 13  2  0  0  0  0
 12 14  2  0  0  0  0
 14 15  1  0  0  0  0
 15 16  1  0  0  0  0
 12 17  2  0  0  0  0
 17 18  1  0  0  0  0
 18 19  1  0  0  0  0
  1 20  1  0  0  0  0
  1 21  1  0  0  0  0
  1 22  1  0  0  0  0
  2 23  1  0  0  0  0
  2 24  1  0  0  0  0
  7 25  1  0  0  0  0
  7 26  1  0  0  0  0
  8 27  1  0  0  0  0
  8 28  1  0  0  0  0
  8 29  1  0  0  0  0
 10 30  1  0  0  0  0
 10 31  1  0  0  0  0
 15 32  1  0  0  0  0
 15 33  1  0  0  0  0
 16 34  1  0  0  0  0
 16 35  1  0  0  0  0
 16 36  1  0  0  0  0
 18 37  1  0  0  0  0
 18 38  1  0  0  0  0
 19 39  1  0  0  0  0
 19 40  1  0  0  0  0
 19 41  1  0  0  0  0
M  END
