  18
 
 C          3.0197441662       -0.4133849877        0.1270440927
 C          1.7965116081        0.4952832821        0.0943757012
 C          0.5098907486       -0.2937675706       -0.1359067528
 C         -0.7214849486        0.6170628888       -0.1689042807
 C         -1.9728957093       -0.1685894556       -0.3956601011
 C         -2.9931514349       -0.2132958307        0.4404948768
 H          3.9229378837        0.1678324807        0.2961672329
 H          3.1247671259       -0.9456494398       -0.8158396646
 H          2.9281767381       -1.1469253529        0.9250930400
 H          1.7218841237        1.0372212694        1.0399112899
 H          1.9140353673        1.2339161978       -0.7019914866
 H          0.5827425577       -0.8376218642       -1.0807037912
 H          0.3876059690       -1.0304738988        0.6617430057
 H         -0.7950094323        1.1684885283        0.7704325193
 H         -0.6014883439        1.3412398256       -0.9799493525
 H         -2.0002612556       -0.7370445813       -1.3166171305
 H         -3.8742560237       -0.7980306092        0.2378325012
 H         -2.9906373590        0.3408733897        1.3649904924
          18
        -18.93592985
 C          2.7254431331        0.5267332147       -0.1369535714
 C          1.2618879293        0.4350324589        0.2778129590
 C          0.6418488044       -0.9017955606       -0.1216436505
 C         -0.8325299956       -0.9966500116        0.2845199005
 C         -1.6753933231       -0.0032721581       -0.4488850238
 C         -2.4393821657        0.9071899823        0.1254445968
 H          3.1484315615        1.4827805555        0.1614244469
 H          2.8221949297        0.4299157652       -1.2161098373
 H          3.3041950688       -0.2668203459        0.3308154997
 H          1.1822885480        0.5584168469        1.3602553878
 H          0.6971693900        1.2455511980       -0.1883772923
 H          0.7271229056       -1.0302027433       -1.2032160039
 H          1.1969146090       -1.7126950567        0.3549953577
 H         -1.1944453100       -2.0021127100        0.0511267717
 H         -0.9286053872       -0.8416841832        1.3607633791
 H         -1.6255285380       -0.0675592553       -1.5284696021
 H         -3.0331228250        1.6002946709       -0.4459352089
 H         -2.5055575126        0.9945362077        1.1975462566
