  21
 
 C         -3.4317071653       -1.0078934692        0.2268673539
 C         -2.5534742209        0.2128649601        0.2560042769
 O         -3.0376875474        1.3347099531        0.3535507534
 C         -1.0975592705        0.0131327749        0.1690794645
 C         -0.2702352945        1.1376566955        0.2086035093
 C          1.1020531312        1.0312978351        0.1332884320
 C          1.6893733907       -0.2280197505        0.0145224173
 C          0.8689265831       -1.3623585633       -0.0262486642
 C         -0.4981631472       -1.2460503882        0.0499308111
 O          3.0183392443       -0.4601733443       -0.0669872392
 C          3.9142727606        0.6376867915       -0.0310859176
 H         -3.2674520801       -1.5658241733       -0.6912402567
 H         -4.4720452735       -0.6987051235        0.2809679126
 H         -3.2002835069       -1.6495134927        1.0727673397
 H         -0.7368414847        2.1076550053        0.3010407206
 H          1.7032674452        1.9250569273        0.1674121950
 H          1.3428751494       -2.3264036088       -0.1188800852
 H         -1.1001478111       -2.1387119328        0.0160391994
 H          4.9066021597        0.1982266201       -0.1008615772
 H          3.8214455171        1.1905921606        0.9063294476
 H          3.7476467315        1.3079396862       -0.8770555867
          21
        -32.49040927
 C         -3.4272140756       -1.0234742414       -0.0008053018
 C         -2.5514267330        0.1994181396       -0.0001123739
 O         -3.0388602551        1.3240504621       -0.0000168632
 C         -1.0930782169       -0.0022904954        0.0001585425
 C         -0.2673276112        1.1239364902        0.0005395390
 C          1.1069220717        1.0154715712        0.0007073552
 C          1.6974922401       -0.2478793667        0.0006201224
 C          0.8786381626       -1.3839883558        0.0003013818
 C         -0.4904017374       -1.2655786632        0.0000344604
 O          3.0286393986       -0.4824673952        0.0009185400
 C          3.9236107060        0.6169163278       -0.0018348113
 H         -3.2264999764       -1.6219174423       -0.8854927617
 H         -4.4695666187       -0.7157265881        0.0003762558
 H         -3.2250489662       -1.6243187201        0.8818899711
 H         -0.7366787249        2.0969170574        0.0006344412
 H          1.7069653347        1.9105395669        0.0009328329
 H          1.3554979271       -2.3510157360        0.0001970944
 H         -1.0904753610       -2.1600650860       -0.0005104383
 H          4.9172343191        0.1751761767       -0.0032457817
 H          3.7945761763        1.2310932070        0.8922820664
 H          3.7911409770        1.2292165226       -0.8967163805
