 xtb: 6.7.1 (edcfbbe)
          04092505213D

 41 40  0     0  0            999 V2000
    4.7188   -1.2664   -0.6782 C   0  0  0  0  0  0  0  0  0  0  0  0
    4.6037    0.1939   -0.2923 C   0  0  0  0  0  0  0  0  0  0  0  0
    3.4250    0.4551    0.4874 O   0  0  0  0  0  0  0  0  0  0  0  0
    1.9600    0.3923   -0.1327 P   0  0  0  0  0  0  0  0  0  0  0  0
    1.8756    1.0271   -1.9925 S   0  0  0  0  0  0  0  0  0  0  0  0
    1.1411    1.1211    1.0125 O   0  0  0  0  0  0  0  0  0  0  0  0
    1.4824    2.4166    1.5542 C   0  0  0  0  0  0  0  0  0  0  0  0
    1.3061    3.5275    0.5395 C   0  0  0  0  0  0  0  0  0  0  0  0
    1.3203   -1.5960    0.1837 S   0  0  0  0  0  0  0  0  0  0  0  0
    0.2870   -1.8444   -1.2931 C   0  0  0  0  0  0  0  0  0  0  0  0
   -1.4250   -2.2877   -0.8933 S   0  0  0  0  0  0  0  0  0  0  0  0
   -2.0446   -0.5117    0.0371 P   0  0  0  0  0  0  0  0  0  0  0  0
   -1.5233    1.1907   -0.7960 S   0  0  0  0  0  0  0  0  0  0  0  0
   -1.5517   -0.7538    1.5178 O   0  0  0  0  0  0  0  0  0  0  0  0
   -1.6831    0.2576    2.5429 C   0  0  0  0  0  0  0  0  0  0  0  0
   -0.7095   -0.0806    3.6525 C   0  0  0  0  0  0  0  0  0  0  0  0
   -3.6150   -0.7178    0.1921 O   0  0  0  0  0  0  0  0  0  0  0  0
   -4.5357   -0.4651   -0.8902 C   0  0  0  0  0  0  0  0  0  0  0  0
   -5.2218    0.8734   -0.6976 C   0  0  0  0  0  0  0  0  0  0  0  0
    4.6249   -1.8987    0.2009 H   0  0  0  0  0  0  0  0  0  0  0  0
    3.9310   -1.5258   -1.3839 H   0  0  0  0  0  0  0  0  0  0  0  0
    5.6821   -1.4382   -1.1474 H   0  0  0  0  0  0  0  0  0  0  0  0
    4.5733    0.8253   -1.1861 H   0  0  0  0  0  0  0  0  0  0  0  0
    5.4222    0.5056    0.3579 H   0  0  0  0  0  0  0  0  0  0  0  0
    0.7921    2.5324    2.3920 H   0  0  0  0  0  0  0  0  0  0  0  0
    2.5102    2.3764    1.9219 H   0  0  0  0  0  0  0  0  0  0  0  0
    2.0332    3.4271   -0.2647 H   0  0  0  0  0  0  0  0  0  0  0  0
    0.3096    3.4815    0.1034 H   0  0  0  0  0  0  0  0  0  0  0  0
    1.4433    4.4881    1.0256 H   0  0  0  0  0  0  0  0  0  0  0  0
    0.6812   -2.6903   -1.8505 H   0  0  0  0  0  0  0  0  0  0  0  0
    0.3121   -0.9309   -1.8954 H   0  0  0  0  0  0  0  0  0  0  0  0
   -1.4688    1.2335    2.0940 H   0  0  0  0  0  0  0  0  0  0  0  0
   -2.7172    0.2436    2.8950 H   0  0  0  0  0  0  0  0  0  0  0  0
   -0.9267   -1.0703    4.0434 H   0  0  0  0  0  0  0  0  0  0  0  0
    0.3078   -0.0733    3.2696 H   0  0  0  0  0  0  0  0  0  0  0  0
   -0.8039    0.6517    4.4479 H   0  0  0  0  0  0  0  0  0  0  0  0
   -3.9948   -0.4921   -1.8400 H   0  0  0  0  0  0  0  0  0  0  0  0
   -5.2480   -1.2909   -0.8525 H   0  0  0  0  0  0  0  0  0  0  0  0
   -4.4893    1.6769   -0.7406 H   0  0  0  0  0  0  0  0  0  0  0  0
   -5.9521    1.0176   -1.4872 H   0  0  0  0  0  0  0  0  0  0  0  0
   -5.7218    0.9025    0.2663 H   0  0  0  0  0  0  0  0  0  0  0  0
  1  2  1  0  0  0  0
  2  3  1  0  0  0  0
  3  4  2  0  0  0  0
  4  5  2  0  0  0  0
  4  6  2  0  0  0  0
  6  7  1  0  0  0  0
  7  8  1  0  0  0  0
  4  9  1  0  0  0  0
  9 10  1  0  0  0  0
 10 11  1  0  0  0  0
 11 12  1  0  0  0  0
 12 13  2  0  0  0  0
 12 14  2  0  0  0  0
 14 15  1  0  0  0  0
 15 16  1  0  0  0  0
 12 17  2  0  0  0  0
 17 18  1  0  0  0  0
 18 19  1  0  0  0  0
  1 20  1  0  0  0  0
  1 21  1  0  0  0  0
  1 22  1  0  0  0  0
  2 23  1  0  0  0  0
  2 24  1  0  0  0  0
  7 25  1  0  0  0  0
  7 26  1  0  0  0  0
  8 27  1  0  0  0  0
  8 28  1  0  0  0  0
  8 29  1  0  0  0  0
 10 30  1  0  0  0  0
 10 31  1  0  0  0  0
 15 32  1  0  0  0  0
 15 33  1  0  0  0  0
 16 34  1  0  0  0  0
 16 35  1  0  0  0  0
 16 36  1  0  0  0  0
 18 37  1  0  0  0  0
 18 38  1  0  0  0  0
 19 39  1  0  0  0  0
 19 40  1  0  0  0  0
 19 41  1  0  0  0  0
M  END
