 xtb: 6.7.1 (edcfbbe)
          04092505213D

 41 40  0     0  0            999 V2000
    4.7201   -1.1950   -1.7548 C   0  0  0  0  0  0  0  0  0  0  0  0
    3.9596   -1.9686   -0.6989 C   0  0  0  0  0  0  0  0  0  0  0  0
    3.3907   -1.1180    0.3149 O   0  0  0  0  0  0  0  0  0  0  0  0
    2.4313    0.1175    0.0420 P   0  0  0  0  0  0  0  0  0  0  0  0
    3.2091    1.8027   -0.5725 S   0  0  0  0  0  0  0  0  0  0  0  0
    1.7648    0.3323    1.4531 O   0  0  0  0  0  0  0  0  0  0  0  0
    1.1868   -0.7381    2.2370 C   0  0  0  0  0  0  0  0  0  0  0  0
    2.1319   -1.1449    3.3485 C   0  0  0  0  0  0  0  0  0  0  0  0
    0.9348   -0.7298   -1.2354 S   0  0  0  0  0  0  0  0  0  0  0  0
    0.2158    0.8443   -1.7393 C   0  0  0  0  0  0  0  0  0  0  0  0
   -0.7080    1.6627   -0.4112 S   0  0  0  0  0  0  0  0  0  0  0  0
   -2.3058    0.2699   -0.3775 P   0  0  0  0  0  0  0  0  0  0  0  0
   -2.9097   -0.4423   -2.0904 S   0  0  0  0  0  0  0  0  0  0  0  0
   -3.4611    1.0432    0.3810 O   0  0  0  0  0  0  0  0  0  0  0  0
   -3.2725    1.6265    1.6945 C   0  0  0  0  0  0  0  0  0  0  0  0
   -4.6422    1.9533    2.2519 C   0  0  0  0  0  0  0  0  0  0  0  0
   -1.7158   -0.8032    0.6549 O   0  0  0  0  0  0  0  0  0  0  0  0
   -2.1202   -2.1867    0.6103 C   0  0  0  0  0  0  0  0  0  0  0  0
   -3.5383   -2.3610    1.1139 C   0  0  0  0  0  0  0  0  0  0  0  0
    5.1980   -1.8903   -2.4375 H   0  0  0  0  0  0  0  0  0  0  0  0
    4.0397   -0.5570   -2.3171 H   0  0  0  0  0  0  0  0  0  0  0  0
    5.4765   -0.5648   -1.2931 H   0  0  0  0  0  0  0  0  0  0  0  0
    4.6207   -2.6307   -0.1369 H   0  0  0  0  0  0  0  0  0  0  0  0
    3.1497   -2.5469   -1.1523 H   0  0  0  0  0  0  0  0  0  0  0  0
    0.2568   -0.3236    2.6313 H   0  0  0  0  0  0  0  0  0  0  0  0
    0.9618   -1.5804    1.5769 H   0  0  0  0  0  0  0  0  0  0  0  0
    1.6598   -1.9080    3.9592 H   0  0  0  0  0  0  0  0  0  0  0  0
    3.0549   -1.5371    2.9294 H   0  0  0  0  0  0  0  0  0  0  0  0
    2.3682   -0.2835    3.9670 H   0  0  0  0  0  0  0  0  0  0  0  0
   -0.4560    0.6356   -2.5720 H   0  0  0  0  0  0  0  0  0  0  0  0
    1.0146    1.5294   -2.0266 H   0  0  0  0  0  0  0  0  0  0  0  0
   -2.7422    0.9075    2.3240 H   0  0  0  0  0  0  0  0  0  0  0  0
   -2.6590    2.5241    1.5797 H   0  0  0  0  0  0  0  0  0  0  0  0
   -5.2358    1.0483    2.3453 H   0  0  0  0  0  0  0  0  0  0  0  0
   -4.5289    2.4131    3.2284 H   0  0  0  0  0  0  0  0  0  0  0  0
   -5.1576    2.6410    1.5879 H   0  0  0  0  0  0  0  0  0  0  0  0
   -2.0279   -2.5428   -0.4202 H   0  0  0  0  0  0  0  0  0  0  0  0
   -1.3969   -2.6986    1.2462 H   0  0  0  0  0  0  0  0  0  0  0  0
   -3.8021   -3.4136    1.0919 H   0  0  0  0  0  0  0  0  0  0  0  0
   -3.6307   -1.9880    2.1307 H   0  0  0  0  0  0  0  0  0  0  0  0
   -4.2249   -1.8114    0.4699 H   0  0  0  0  0  0  0  0  0  0  0  0
  1  2  1  0  0  0  0
  2  3  1  0  0  0  0
  3  4  2  0  0  0  0
  4  5  2  0  0  0  0
  4  6  2  0  0  0  0
  6  7  1  0  0  0  0
  7  8  1  0  0  0  0
  4  9  1  0  0  0  0
  9 10  1  0  0  0  0
 10 11  1  0  0  0  0
 11 12  1  0  0  0  0
 12 13  2  0  0  0  0
 12 14  2  0  0  0  0
 14 15  1  0  0  0  0
 15 16  1  0  0  0  0
 12 17  1  0  0  0  0
 17 18  1  0  0  0  0
 18 19  1  0  0  0  0
  1 20  1  0  0  0  0
  1 21  1  0  0  0  0
  1 22  1  0  0  0  0
  2 23  1  0  0  0  0
  2 24  1  0  0  0  0
  7 25  1  0  0  0  0
  7 26  1  0  0  0  0
  8 27  1  0  0  0  0
  8 28  1  0  0  0  0
  8 29  1  0  0  0  0
 10 30  1  0  0  0  0
 10 31  1  0  0  0  0
 15 32  1  0  0  0  0
 15 33  1  0  0  0  0
 16 34  1  0  0  0  0
 16 35  1  0  0  0  0
 16 36  1  0  0  0  0
 18 37  1  0  0  0  0
 18 38  1  0  0  0  0
 19 39  1  0  0  0  0
 19 40  1  0  0  0  0
 19 41  1  0  0  0  0
M  END
