 xtb: 6.7.1 (edcfbbe)
          04092507313D

 38 37  0     0  0            999 V2000
    3.2769   -1.6967    1.6293 C   0  0  0  0  0  0  0  0  0  0  0  0
    2.9570   -2.3120    0.2776 C   0  0  0  0  0  0  0  0  0  0  0  0
    2.7187   -1.2694   -0.6880 O   0  0  0  0  0  0  0  0  0  0  0  0
    1.5213   -1.1046   -1.2019 C   0  0  0  0  0  0  0  0  0  0  0  0
    0.5506   -1.7909   -0.9404 O   0  0  0  0  0  0  0  0  0  0  0  0
    1.4862    0.0588   -2.1703 C   0  0  0  0  0  0  0  0  0  0  0  0
    0.3695    1.0358   -1.7966 C   0  0  0  0  0  0  0  0  0  0  0  0
    0.3296    1.8435   -2.5326 H   0  0  0  0  0  0  0  0  0  0  0  0
    0.5572    1.6400   -0.4184 C   0  0  0  0  0  0  0  0  0  0  0  0
   -0.3628    1.7222    0.3764 O   0  0  0  0  0  0  0  0  0  0  0  0
    1.7803    2.0204   -0.1941 O   0  0  0  0  0  0  0  0  0  0  0  0
    2.1008    2.5888    1.0962 C   0  0  0  0  0  0  0  0  0  0  0  0
    1.7601    4.0685    1.1383 C   0  0  0  0  0  0  0  0  0  0  0  0
   -1.2959    0.2819   -1.8375 S   0  0  0  0  0  0  0  0  0  0  0  0
   -1.5794   -0.4227    0.1427 P   0  0  0  0  0  0  0  0  0  0  0  0
   -0.3954   -0.8253    1.6716 S   0  0  0  0  0  0  0  0  0  0  0  0
   -2.8807    0.3812    0.6402 O   0  0  0  0  0  0  0  0  0  0  0  0
   -2.8990    1.4152    1.6204 C   0  0  0  0  0  0  0  0  0  0  0  0
   -2.3206   -1.7327   -0.4052 O   0  0  0  0  0  0  0  0  0  0  0  0
   -2.8658   -2.7172    0.4735 C   0  0  0  0  0  0  0  0  0  0  0  0
    2.4037   -1.1765    2.0188 H   0  0  0  0  0  0  0  0  0  0  0  0
    3.5499   -2.4841    2.3236 H   0  0  0  0  0  0  0  0  0  0  0  0
    4.1014   -0.9966    1.5338 H   0  0  0  0  0  0  0  0  0  0  0  0
    2.0699   -2.9488    0.3353 H   0  0  0  0  0  0  0  0  0  0  0  0
    3.8053   -2.8789   -0.1105 H   0  0  0  0  0  0  0  0  0  0  0  0
    1.2809   -0.3334   -3.1671 H   0  0  0  0  0  0  0  0  0  0  0  0
    2.4500    0.5665   -2.1525 H   0  0  0  0  0  0  0  0  0  0  0  0
    1.5548    2.0347    1.8651 H   0  0  0  0  0  0  0  0  0  0  0  0
    3.1728    2.4217    1.1971 H   0  0  0  0  0  0  0  0  0  0  0  0
    2.2720    4.5936    0.3368 H   0  0  0  0  0  0  0  0  0  0  0  0
    0.6874    4.2118    1.0313 H   0  0  0  0  0  0  0  0  0  0  0  0
    2.0742    4.4774    2.0927 H   0  0  0  0  0  0  0  0  0  0  0  0
   -3.8888    1.3817    2.0698 H   0  0  0  0  0  0  0  0  0  0  0  0
   -2.7213    2.3764    1.1419 H   0  0  0  0  0  0  0  0  0  0  0  0
   -2.1291    1.2317    2.3721 H   0  0  0  0  0  0  0  0  0  0  0  0
   -2.1505   -2.9538    1.2646 H   0  0  0  0  0  0  0  0  0  0  0  0
   -3.0497   -3.5929   -0.1438 H   0  0  0  0  0  0  0  0  0  0  0  0
   -3.7942   -2.3513    0.9129 H   0  0  0  0  0  0  0  0  0  0  0  0
  1  2  1  0  0  0  0
  2  3  1  0  0  0  0
  3  4  4  0  0  0  0
  4  5  2  0  0  0  0
  4  6  1  0  0  0  0
  6  7  1  0  0  0  0
  7  8  1  0  0  0  0
  7  9  1  0  0  0  0
  9 10  2  0  0  0  0
  9 11  4  0  0  0  0
 11 12  1  0  0  0  0
 12 13  1  0  0  0  0
  7 14  1  0  0  0  0
 14 15  1  0  0  0  0
 15 16  2  0  0  0  0
 15 17  1  0  0  0  0
 17 18  1  0  0  0  0
 15 19  1  0  0  0  0
 19 20  1  0  0  0  0
  1 21  1  0  0  0  0
  1 22  1  0  0  0  0
  1 23  1  0  0  0  0
  2 24  1  0  0  0  0
  2 25  1  0  0  0  0
  6 26  1  0  0  0  0
  6 27  1  0  0  0  0
 12 28  1  0  0  0  0
 12 29  1  0  0  0  0
 13 30  1  0  0  0  0
 13 31  1  0  0  0  0
 13 32  1  0  0  0  0
 18 33  1  0  0  0  0
 18 34  1  0  0  0  0
 18 35  1  0  0  0  0
 20 36  1  0  0  0  0
 20 37  1  0  0  0  0
 20 38  1  0  0  0  0
M  END
