38
 xtb: 6.7.1 (edcfbbe)
C            2.53439924790296       -2.96939783199580        0.43345768464390
C            3.11793990407108       -2.83166762996158       -0.95401920636849
O            2.24949849542780       -1.99614003805597       -1.79241951289431
C            2.35697564422741       -0.67112394002236       -1.63559819246829
O            3.18352245662154       -0.12461800833519       -0.92486872590285
C            1.30933948529569        0.08513417765762       -2.41413971438820
C            0.21537058725392        0.64172354943420       -1.47618569309714
H           -0.46396654559204        1.25315756817763       -2.07469239432169
C            0.84336204833461        1.56805676006099       -0.44296271870358
O            1.22510671684124        2.68031002324762       -0.76263327031578
O            0.96401160831393        1.04179324413746        0.76747634724225
C            1.63645380906019        1.87327055447728        1.77304322180827
C            1.66360553950081        1.08257031313687        3.05415621481967
S           -0.74807630453109       -0.79581270246378       -0.81373852702243
P           -2.15815674534117        0.17211055211368        0.44278881029515
S           -2.53173730578810        2.02881593465703        0.01659920238825
O           -3.37877074865005       -0.88076815392654        0.39838466875407
C           -4.22383800668582       -0.97221352754277       -0.78278516368887
O           -1.68440261128576       -0.00243576444131        1.96532549451025
C           -1.18502363384870       -1.28029807528244        2.46246834841891
H            1.53518150513313       -3.41193424583690        0.39203698966935
H            3.17861630664674       -3.62825898707183        1.02419173948699
H            2.47614165894406       -2.00174545261764        0.94025670027566
H            3.14407370318873       -3.78768395447713       -1.47889319580404
H            4.11949245449403       -2.39561108902027       -0.94396127921909
H            0.85225246786268       -0.54223487776380       -3.18125473460012
H            1.79272637499059        0.94158226259151       -2.89259968761069
H            2.64091707632987        2.09682609120103        1.40167888116122
H            1.07252891460750        2.80529721653140        1.87095716753555
H            2.18819384195044        0.13228331429257        2.91766183048986
H            2.19609619030961        1.66276545507327        3.81354798400267
H            0.65194955938419        0.88612779074773        3.41920148437101
H           -3.63391133431862       -1.27668083245916       -1.65158870836658
H           -4.71096026575891       -0.01171576522137       -0.96909231873175
H           -4.96826977824259       -1.73360713164987       -0.55106595688791
H           -1.90467840284590       -2.07780554145409        2.26237870452071
H           -1.06558370075976       -1.14750792993915        3.53735986409004
H           -0.22010243447091       -1.50774211486724        2.00127464372358
