 xtb: 6.7.1 (edcfbbe)
          04032520013D

 20 20  0     0  0            999 V2000
    0.6172    1.6961   -0.0284 C   0  0  0  0  0  0  0  0  0  0  0  0
    1.3970    0.4001   -0.2610 C   0  0  0  0  0  0  0  0  0  0  0  0
    1.5916    0.2776   -1.3384 H   0  0  0  0  0  0  0  0  0  0  0  0
    0.5460   -0.7897    0.2071 C   0  0  0  0  0  0  0  0  0  0  0  0
    0.3646   -0.6858    1.2847 H   0  0  0  0  0  0  0  0  0  0  0  0
   -0.8027   -0.7469   -0.5326 C   0  0  0  0  0  0  0  0  0  0  0  0
   -0.6201   -0.8435   -1.6097 H   0  0  0  0  0  0  0  0  0  0  0  0
   -1.4644    0.6249   -0.2792 C   0  0  0  0  0  0  0  0  0  0  0  0
   -2.3647    0.7156   -0.9071 H   0  0  0  0  0  0  0  0  0  0  0  0
   -0.6397    1.6707   -0.6883 O   0  0  0  0  0  0  0  0  0  0  0  0
   -1.7975    0.7729    1.0725 O   0  0  0  0  0  0  0  0  0  0  0  0
   -1.7017   -1.7282   -0.0707 O   0  0  0  0  0  0  0  0  0  0  0  0
    1.2695   -1.9708   -0.0691 O   0  0  0  0  0  0  0  0  0  0  0  0
    2.6062    0.4805    0.4477 O   0  0  0  0  0  0  0  0  0  0  0  0
    1.1541    2.5455   -0.4480 H   0  0  0  0  0  0  0  0  0  0  0  0
    0.4803    1.8450    1.0481 H   0  0  0  0  0  0  0  0  0  0  0  0
   -2.3260    0.0033    1.3370 H   0  0  0  0  0  0  0  0  0  0  0  0
   -1.5124   -2.5761   -0.4954 H   0  0  0  0  0  0  0  0  0  0  0  0
    0.9369   -2.6947    0.4788 H   0  0  0  0  0  0  0  0  0  0  0  0
    3.0557   -0.3763    0.3765 H   0  0  0  0  0  0  0  0  0  0  0  0
  1  2  1  0  0  0  0
  2  3  1  0  0  0  0
  2  4  1  0  0  0  0
  4  5  1  0  0  0  0
  4  6  1  0  0  0  0
  6  7  1  0  0  0  0
  6  8  1  0  0  0  0
  8  9  1  0  0  0  0
  1 10  1  0  0  0  0
  8 10  1  0  0  0  0
  8 11  1  0  0  0  0
  6 12  1  0  0  0  0
  4 13  1  0  0  0  0
  2 14  1  0  0  0  0
  1 15  1  0  0  0  0
  1 16  1  0  0  0  0
 11 17  1  0  0  0  0
 12 18  1  0  0  0  0
 13 19  1  0  0  0  0
 14 20  1  0  0  0  0
M  END
