 xtb: 6.7.1 (edcfbbe)
          04092505203D

 41 40  0     0  0            999 V2000
    5.2857   -1.2617   -1.2357 C   0  0  0  0  0  0  0  0  0  0  0  0
    3.8715   -1.6104   -1.6583 C   0  0  0  0  0  0  0  0  0  0  0  0
    2.9854   -1.6451   -0.5223 O   0  0  0  0  0  0  0  0  0  0  0  0
    2.1584   -0.3790   -0.0375 P   0  0  0  0  0  0  0  0  0  0  0  0
    3.1555    1.2644    0.3701 S   0  0  0  0  0  0  0  0  0  0  0  0
    1.3369   -0.9950    1.1641 O   0  0  0  0  0  0  0  0  0  0  0  0
    1.7631   -0.8393    2.5346 C   0  0  0  0  0  0  0  0  0  0  0  0
    3.0257   -1.6267    2.8109 C   0  0  0  0  0  0  0  0  0  0  0  0
    0.6760   -0.1904   -1.5405 S   0  0  0  0  0  0  0  0  0  0  0  0
    0.0935    1.4467   -1.0280 C   0  0  0  0  0  0  0  0  0  0  0  0
   -0.8252    1.4041    0.5257 S   0  0  0  0  0  0  0  0  0  0  0  0
   -2.5464    0.4150   -0.2689 P   0  0  0  0  0  0  0  0  0  0  0  0
   -3.0320    0.9076   -2.0975 S   0  0  0  0  0  0  0  0  0  0  0  0
   -3.6202    0.6006    0.8879 O   0  0  0  0  0  0  0  0  0  0  0  0
   -3.9734    1.8507    1.5109 C   0  0  0  0  0  0  0  0  0  0  0  0
   -4.3831    2.9106    0.5104 C   0  0  0  0  0  0  0  0  0  0  0  0
   -2.2821   -1.1358   -0.1943 O   0  0  0  0  0  0  0  0  0  0  0  0
   -1.9855   -1.8408    1.0374 C   0  0  0  0  0  0  0  0  0  0  0  0
   -1.2427   -3.1107    0.6780 C   0  0  0  0  0  0  0  0  0  0  0  0
    5.9367   -1.2974   -2.1033 H   0  0  0  0  0  0  0  0  0  0  0  0
    5.3176   -0.2607   -0.8110 H   0  0  0  0  0  0  0  0  0  0  0  0
    5.6392   -1.9706   -0.4922 H   0  0  0  0  0  0  0  0  0  0  0  0
    3.8184   -2.6176   -2.0759 H   0  0  0  0  0  0  0  0  0  0  0  0
    3.4910   -0.8935   -2.3919 H   0  0  0  0  0  0  0  0  0  0  0  0
    1.9169    0.2263    2.7322 H   0  0  0  0  0  0  0  0  0  0  0  0
    0.9184   -1.2070    3.1183 H   0  0  0  0  0  0  0  0  0  0  0  0
    2.8853   -2.6701    2.5417 H   0  0  0  0  0  0  0  0  0  0  0  0
    3.8466   -1.2191    2.2219 H   0  0  0  0  0  0  0  0  0  0  0  0
    3.2758   -1.5527    3.8645 H   0  0  0  0  0  0  0  0  0  0  0  0
   -0.5597    1.8097   -1.8224 H   0  0  0  0  0  0  0  0  0  0  0  0
    0.9483    2.1062   -0.8747 H   0  0  0  0  0  0  0  0  0  0  0  0
   -4.8009    1.5820    2.1698 H   0  0  0  0  0  0  0  0  0  0  0  0
   -3.1187    2.1880    2.1038 H   0  0  0  0  0  0  0  0  0  0  0  0
   -4.7211    3.7952    1.0403 H   0  0  0  0  0  0  0  0  0  0  0  0
   -3.5382    3.1771   -0.1230 H   0  0  0  0  0  0  0  0  0  0  0  0
   -5.1844    2.5426   -0.1261 H   0  0  0  0  0  0  0  0  0  0  0  0
   -1.3813   -1.1901    1.6767 H   0  0  0  0  0  0  0  0  0  0  0  0
   -2.9357   -2.0535    1.5308 H   0  0  0  0  0  0  0  0  0  0  0  0
   -0.2862   -2.8699    0.2201 H   0  0  0  0  0  0  0  0  0  0  0  0
   -1.0726   -3.6921    1.5784 H   0  0  0  0  0  0  0  0  0  0  0  0
   -1.8290   -3.6950   -0.0253 H   0  0  0  0  0  0  0  0  0  0  0  0
  1  2  1  0  0  0  0
  2  3  1  0  0  0  0
  3  4  2  0  0  0  0
  4  5  2  0  0  0  0
  4  6  2  0  0  0  0
  6  7  1  0  0  0  0
  7  8  1  0  0  0  0
  4  9  1  0  0  0  0
  9 10  1  0  0  0  0
 10 11  1  0  0  0  0
 11 12  1  0  0  0  0
 12 13  2  0  0  0  0
 12 14  2  0  0  0  0
 14 15  1  0  0  0  0
 15 16  1  0  0  0  0
 12 17  2  0  0  0  0
 17 18  1  0  0  0  0
 18 19  1  0  0  0  0
  1 20  1  0  0  0  0
  1 21  1  0  0  0  0
  1 22  1  0  0  0  0
  2 23  1  0  0  0  0
  2 24  1  0  0  0  0
  7 25  1  0  0  0  0
  7 26  1  0  0  0  0
  8 27  1  0  0  0  0
  8 28  1  0  0  0  0
  8 29  1  0  0  0  0
 10 30  1  0  0  0  0
 10 31  1  0  0  0  0
 15 32  1  0  0  0  0
 15 33  1  0  0  0  0
 16 34  1  0  0  0  0
 16 35  1  0  0  0  0
 16 36  1  0  0  0  0
 18 37  1  0  0  0  0
 18 38  1  0  0  0  0
 19 39  1  0  0  0  0
 19 40  1  0  0  0  0
 19 41  1  0  0  0  0
M  END
