 xtb: 6.7.1 (edcfbbe)
          04032520543D

 17 17  0     0  0            999 V2000
    2.4013    1.1063    0.0059 C   0  0  0  0  0  0  0  0  0  0  0  0
    1.1451    0.2920   -0.0112 C   0  0  0  0  0  0  0  0  0  0  0  0
    1.1912   -1.0978   -0.0828 C   0  0  0  0  0  0  0  0  0  0  0  0
    0.0003   -1.8030   -0.0969 C   0  0  0  0  0  0  0  0  0  0  0  0
   -1.1924   -1.1029   -0.0393 C   0  0  0  0  0  0  0  0  0  0  0  0
   -1.1497    0.2870    0.0309 C   0  0  0  0  0  0  0  0  0  0  0  0
   -0.0031    0.9570    0.0439 N   0  0  0  0  0  0  0  0  0  0  0  0
   -2.4079    1.0958    0.0972 C   0  0  0  0  0  0  0  0  0  0  0  0
    2.1531    2.1601    0.0798 H   0  0  0  0  0  0  0  0  0  0  0  0
    3.0216    0.8207    0.8530 H   0  0  0  0  0  0  0  0  0  0  0  0
    2.9713    0.9335   -0.9047 H   0  0  0  0  0  0  0  0  0  0  0  0
    2.1414   -1.6070   -0.1261 H   0  0  0  0  0  0  0  0  0  0  0  0
    0.0016   -2.8821   -0.1520 H   0  0  0  0  0  0  0  0  0  0  0  0
   -2.1414   -1.6162   -0.0481 H   0  0  0  0  0  0  0  0  0  0  0  0
   -2.9733    0.8346    0.9895 H   0  0  0  0  0  0  0  0  0  0  0  0
   -2.1624    2.1524    0.1244 H   0  0  0  0  0  0  0  0  0  0  0  0
   -3.0313    0.8914   -0.7707 H   0  0  0  0  0  0  0  0  0  0  0  0
  1  2  1  0  0  0  0
  2  3  4  0  0  0  0
  3  4  4  0  0  0  0
  4  5  4  0  0  0  0
  5  6  4  0  0  0  0
  2  7  4  0  0  0  0
  6  7  4  0  0  0  0
  6  8  1  0  0  0  0
  1  9  1  0  0  0  0
  1 10  1  0  0  0  0
  1 11  1  0  0  0  0
  3 12  1  0  0  0  0
  4 13  1  0  0  0  0
  5 14  1  0  0  0  0
  8 15  1  0  0  0  0
  8 16  1  0  0  0  0
  8 17  1  0  0  0  0
M  END
