 xtb: 6.7.1 (edcfbbe)
          04092505213D

 41 40  0     0  0            999 V2000
    2.5811   -2.7140   -2.1009 C   0  0  0  0  0  0  0  0  0  0  0  0
    3.2425   -1.3804   -1.8139 C   0  0  0  0  0  0  0  0  0  0  0  0
    2.9661   -0.9602   -0.4623 O   0  0  0  0  0  0  0  0  0  0  0  0
    2.1041    0.3030   -0.0572 P   0  0  0  0  0  0  0  0  0  0  0  0
    1.3061    1.2377   -1.5921 S   0  0  0  0  0  0  0  0  0  0  0  0
    3.1971    1.1407    0.7339 O   0  0  0  0  0  0  0  0  0  0  0  0
    2.9276    2.0805    1.7880 C   0  0  0  0  0  0  0  0  0  0  0  0
    1.9661    3.1739    1.3693 C   0  0  0  0  0  0  0  0  0  0  0  0
    0.9373   -0.4783    1.5383 S   0  0  0  0  0  0  0  0  0  0  0  0
    0.2268   -1.9234    0.7037 C   0  0  0  0  0  0  0  0  0  0  0  0
   -0.7073   -1.5264   -0.8045 S   0  0  0  0  0  0  0  0  0  0  0  0
   -2.0893   -0.1445   -0.0023 P   0  0  0  0  0  0  0  0  0  0  0  0
   -1.6192    1.6956    0.5070 S   0  0  0  0  0  0  0  0  0  0  0  0
   -2.6701   -1.0418    1.1630 O   0  0  0  0  0  0  0  0  0  0  0  0
   -3.1492   -0.5305    2.4263 C   0  0  0  0  0  0  0  0  0  0  0  0
   -2.2820   -1.0601    3.5514 C   0  0  0  0  0  0  0  0  0  0  0  0
   -3.2691   -0.2028   -1.0686 O   0  0  0  0  0  0  0  0  0  0  0  0
   -3.3423    0.6867   -2.1939 C   0  0  0  0  0  0  0  0  0  0  0  0
   -2.2532    0.4031   -3.2087 C   0  0  0  0  0  0  0  0  0  0  0  0
    1.4971   -2.6130   -2.0788 H   0  0  0  0  0  0  0  0  0  0  0  0
    2.8815   -3.0471   -3.0890 H   0  0  0  0  0  0  0  0  0  0  0  0
    2.8913   -3.4531   -1.3674 H   0  0  0  0  0  0  0  0  0  0  0  0
    2.8872   -0.6089   -2.5052 H   0  0  0  0  0  0  0  0  0  0  0  0
    4.3297   -1.4538   -1.8745 H   0  0  0  0  0  0  0  0  0  0  0  0
    2.5356    1.5297    2.6485 H   0  0  0  0  0  0  0  0  0  0  0  0
    3.9124    2.4864    2.0263 H   0  0  0  0  0  0  0  0  0  0  0  0
    2.3260    3.6725    0.4720 H   0  0  0  0  0  0  0  0  0  0  0  0
    0.9805    2.7575    1.1580 H   0  0  0  0  0  0  0  0  0  0  0  0
    1.8709    3.8997    2.1704 H   0  0  0  0  0  0  0  0  0  0  0  0
   -0.4343   -2.3948    1.4276 H   0  0  0  0  0  0  0  0  0  0  0  0
    1.0250   -2.5977    0.4011 H   0  0  0  0  0  0  0  0  0  0  0  0
   -3.1295    0.5637    2.3984 H   0  0  0  0  0  0  0  0  0  0  0  0
   -4.1799   -0.8774    2.5142 H   0  0  0  0  0  0  0  0  0  0  0  0
   -1.2590   -0.7054    3.4357 H   0  0  0  0  0  0  0  0  0  0  0  0
   -2.6748   -0.7031    4.4978 H   0  0  0  0  0  0  0  0  0  0  0  0
   -2.2861   -2.1465    3.5501 H   0  0  0  0  0  0  0  0  0  0  0  0
   -4.3361    0.5073   -2.6064 H   0  0  0  0  0  0  0  0  0  0  0  0
   -3.2698    1.7168   -1.8291 H   0  0  0  0  0  0  0  0  0  0  0  0
   -1.2753    0.6469   -2.7905 H   0  0  0  0  0  0  0  0  0  0  0  0
   -2.2622   -0.6472   -3.4896 H   0  0  0  0  0  0  0  0  0  0  0  0
   -2.4119    1.0150   -4.0908 H   0  0  0  0  0  0  0  0  0  0  0  0
  1  2  1  0  0  0  0
  2  3  1  0  0  0  0
  3  4  2  0  0  0  0
  4  5  2  0  0  0  0
  4  6  2  0  0  0  0
  6  7  1  0  0  0  0
  7  8  1  0  0  0  0
  4  9  1  0  0  0  0
  9 10  1  0  0  0  0
 10 11  1  0  0  0  0
 11 12  1  0  0  0  0
 12 13  2  0  0  0  0
 12 14  2  0  0  0  0
 14 15  1  0  0  0  0
 15 16  1  0  0  0  0
 12 17  2  0  0  0  0
 17 18  1  0  0  0  0
 18 19  1  0  0  0  0
  1 20  1  0  0  0  0
  1 21  1  0  0  0  0
  1 22  1  0  0  0  0
  2 23  1  0  0  0  0
  2 24  1  0  0  0  0
  7 25  1  0  0  0  0
  7 26  1  0  0  0  0
  8 27  1  0  0  0  0
  8 28  1  0  0  0  0
  8 29  1  0  0  0  0
 10 30  1  0  0  0  0
 10 31  1  0  0  0  0
 15 32  1  0  0  0  0
 15 33  1  0  0  0  0
 16 34  1  0  0  0  0
 16 35  1  0  0  0  0
 16 36  1  0  0  0  0
 18 37  1  0  0  0  0
 18 38  1  0  0  0  0
 19 39  1  0  0  0  0
 19 40  1  0  0  0  0
 19 41  1  0  0  0  0
M  END
