 xtb: 6.7.1 (edcfbbe)
          04092505213D

 41 40  0     0  0            999 V2000
    1.8937   -1.8419   -2.8922 C   0  0  0  0  0  0  0  0  0  0  0  0
    2.2692   -0.4342   -2.4698 C   0  0  0  0  0  0  0  0  0  0  0  0
    3.0624   -0.4795   -1.2647 O   0  0  0  0  0  0  0  0  0  0  0  0
    2.4950    0.0085    0.1369 P   0  0  0  0  0  0  0  0  0  0  0  0
    1.9959    1.8983    0.2618 S   0  0  0  0  0  0  0  0  0  0  0  0
    3.6923   -0.3225    1.1022 O   0  0  0  0  0  0  0  0  0  0  0  0
    4.3060   -1.6368    1.2066 C   0  0  0  0  0  0  0  0  0  0  0  0
    3.8759   -2.3196    2.4896 C   0  0  0  0  0  0  0  0  0  0  0  0
    0.9433   -1.3835    0.5426 S   0  0  0  0  0  0  0  0  0  0  0  0
   -0.0437   -0.4202    1.7325 C   0  0  0  0  0  0  0  0  0  0  0  0
   -1.8108   -0.6649    1.4726 S   0  0  0  0  0  0  0  0  0  0  0  0
   -2.0569    0.7931   -0.0655 P   0  0  0  0  0  0  0  0  0  0  0  0
   -1.5431    2.6007    0.4979 S   0  0  0  0  0  0  0  0  0  0  0  0
   -3.5715    0.6168   -0.4948 O   0  0  0  0  0  0  0  0  0  0  0  0
   -4.6393    1.0664    0.3649 C   0  0  0  0  0  0  0  0  0  0  0  0
   -5.8960    1.1763   -0.4744 C   0  0  0  0  0  0  0  0  0  0  0  0
   -1.2655    0.3005   -1.3361 O   0  0  0  0  0  0  0  0  0  0  0  0
   -1.7584   -0.6707   -2.3017 C   0  0  0  0  0  0  0  0  0  0  0  0
   -2.0174   -2.0317   -1.6921 C   0  0  0  0  0  0  0  0  0  0  0  0
    1.3524   -1.8012   -3.8319 H   0  0  0  0  0  0  0  0  0  0  0  0
    2.7933   -2.4356   -3.0266 H   0  0  0  0  0  0  0  0  0  0  0  0
    1.2716   -2.3130   -2.1352 H   0  0  0  0  0  0  0  0  0  0  0  0
    1.3878    0.1915   -2.2948 H   0  0  0  0  0  0  0  0  0  0  0  0
    2.9040    0.0493   -3.2151 H   0  0  0  0  0  0  0  0  0  0  0  0
    4.0384   -2.2274    0.3291 H   0  0  0  0  0  0  0  0  0  0  0  0
    5.3783   -1.4365    1.2031 H   0  0  0  0  0  0  0  0  0  0  0  0
    4.4446   -3.2364    2.6081 H   0  0  0  0  0  0  0  0  0  0  0  0
    4.0667   -1.6688    3.3386 H   0  0  0  0  0  0  0  0  0  0  0  0
    2.8168   -2.5629    2.4596 H   0  0  0  0  0  0  0  0  0  0  0  0
    0.2014    0.6399    1.6082 H   0  0  0  0  0  0  0  0  0  0  0  0
    0.1773   -0.7634    2.7396 H   0  0  0  0  0  0  0  0  0  0  0  0
   -4.7559    0.3352    1.1690 H   0  0  0  0  0  0  0  0  0  0  0  0
   -4.3555    2.0317    0.7969 H   0  0  0  0  0  0  0  0  0  0  0  0
   -6.7176    1.4956    0.1580 H   0  0  0  0  0  0  0  0  0  0  0  0
   -5.7528    1.9038   -1.2684 H   0  0  0  0  0  0  0  0  0  0  0  0
   -6.1349    0.2130   -0.9152 H   0  0  0  0  0  0  0  0  0  0  0  0
   -2.6650   -0.2632   -2.7511 H   0  0  0  0  0  0  0  0  0  0  0  0
   -0.9588   -0.7061   -3.0429 H   0  0  0  0  0  0  0  0  0  0  0  0
   -2.2674   -2.7267   -2.4875 H   0  0  0  0  0  0  0  0  0  0  0  0
   -1.1369   -2.3922   -1.1655 H   0  0  0  0  0  0  0  0  0  0  0  0
   -2.8469   -1.9826   -0.9907 H   0  0  0  0  0  0  0  0  0  0  0  0
  1  2  1  0  0  0  0
  2  3  1  0  0  0  0
  3  4  2  0  0  0  0
  4  5  2  0  0  0  0
  4  6  2  0  0  0  0
  6  7  1  0  0  0  0
  7  8  1  0  0  0  0
  4  9  1  0  0  0  0
  9 10  1  0  0  0  0
 10 11  1  0  0  0  0
 11 12  1  0  0  0  0
 12 13  2  0  0  0  0
 12 14  2  0  0  0  0
 14 15  1  0  0  0  0
 15 16  1  0  0  0  0
 12 17  2  0  0  0  0
 17 18  1  0  0  0  0
 18 19  1  0  0  0  0
  1 20  1  0  0  0  0
  1 21  1  0  0  0  0
  1 22  1  0  0  0  0
  2 23  1  0  0  0  0
  2 24  1  0  0  0  0
  7 25  1  0  0  0  0
  7 26  1  0  0  0  0
  8 27  1  0  0  0  0
  8 28  1  0  0  0  0
  8 29  1  0  0  0  0
 10 30  1  0  0  0  0
 10 31  1  0  0  0  0
 15 32  1  0  0  0  0
 15 33  1  0  0  0  0
 16 34  1  0  0  0  0
 16 35  1  0  0  0  0
 16 36  1  0  0  0  0
 18 37  1  0  0  0  0
 18 38  1  0  0  0  0
 19 39  1  0  0  0  0
 19 40  1  0  0  0  0
 19 41  1  0  0  0  0
M  END
