 xtb: 6.7.1 (edcfbbe)
          04092514023D

 41 40  0     0  0            999 V2000
    3.7073    0.1173   -2.7134 C   0  0  0  0  0  0  0  0  0  0  0  0
    2.2723    0.4409   -2.3535 C   0  0  0  0  0  0  0  0  0  0  0  0
    1.7173   -0.4955   -1.4095 O   0  0  0  0  0  0  0  0  0  0  0  0
    2.1990   -0.5557    0.1023 P   0  0  0  0  0  0  0  0  0  0  0  0
    2.7732    1.1382    0.9117 S   0  0  0  0  0  0  0  0  0  0  0  0
    3.3211   -1.6814    0.0211 O   0  0  0  0  0  0  0  0  0  0  0  0
    4.3464   -1.8575    1.0148 C   0  0  0  0  0  0  0  0  0  0  0  0
    3.8116   -2.4350    2.3099 C   0  0  0  0  0  0  0  0  0  0  0  0
    0.5619   -1.5546    0.9741 S   0  0  0  0  0  0  0  0  0  0  0  0
   -0.2781   -0.1442    1.7978 C   0  0  0  0  0  0  0  0  0  0  0  0
   -2.0726   -0.2016    1.6169 S   0  0  0  0  0  0  0  0  0  0  0  0
   -2.3155    0.7511   -0.2740 P   0  0  0  0  0  0  0  0  0  0  0  0
   -0.7545    1.8074   -0.8451 S   0  0  0  0  0  0  0  0  0  0  0  0
   -3.6858    1.5198   -0.1405 O   0  0  0  0  0  0  0  0  0  0  0  0
   -3.8161    2.6906    0.6959 C   0  0  0  0  0  0  0  0  0  0  0  0
   -5.0746    3.4269    0.2803 C   0  0  0  0  0  0  0  0  0  0  0  0
   -2.8416   -0.3173   -1.3124 O   0  0  0  0  0  0  0  0  0  0  0  0
   -1.9828   -1.3138   -1.9010 C   0  0  0  0  0  0  0  0  0  0  0  0
   -2.2868   -2.6821   -1.3223 C   0  0  0  0  0  0  0  0  0  0  0  0
    4.3494    0.2436   -1.8426 H   0  0  0  0  0  0  0  0  0  0  0  0
    3.7862   -0.9077   -3.0660 H   0  0  0  0  0  0  0  0  0  0  0  0
    4.0379    0.7956   -3.4943 H   0  0  0  0  0  0  0  0  0  0  0  0
    1.6112    0.3641   -3.2180 H   0  0  0  0  0  0  0  0  0  0  0  0
    2.1916    1.4466   -1.9267 H   0  0  0  0  0  0  0  0  0  0  0  0
    5.0560   -2.5363    0.5391 H   0  0  0  0  0  0  0  0  0  0  0  0
    4.8221   -0.8883    1.1963 H   0  0  0  0  0  0  0  0  0  0  0  0
    3.2631   -3.3538    2.1202 H   0  0  0  0  0  0  0  0  0  0  0  0
    4.6448   -2.6440    2.9742 H   0  0  0  0  0  0  0  0  0  0  0  0
    3.1475   -1.7201    2.7932 H   0  0  0  0  0  0  0  0  0  0  0  0
    0.1066    0.7873    1.3742 H   0  0  0  0  0  0  0  0  0  0  0  0
   -0.0819   -0.2029    2.8648 H   0  0  0  0  0  0  0  0  0  0  0  0
   -3.8757    2.3620    1.7372 H   0  0  0  0  0  0  0  0  0  0  0  0
   -2.9275    3.3177    0.5658 H   0  0  0  0  0  0  0  0  0  0  0  0
   -5.0084    3.7235   -0.7627 H   0  0  0  0  0  0  0  0  0  0  0  0
   -5.9414    2.7854    0.4086 H   0  0  0  0  0  0  0  0  0  0  0  0
   -5.1876    4.3124    0.8976 H   0  0  0  0  0  0  0  0  0  0  0  0
   -2.1983   -1.2814   -2.9711 H   0  0  0  0  0  0  0  0  0  0  0  0
   -0.9342   -1.0366   -1.7424 H   0  0  0  0  0  0  0  0  0  0  0  0
   -3.3325   -2.9268   -1.4851 H   0  0  0  0  0  0  0  0  0  0  0  0
   -1.6621   -3.4203   -1.8150 H   0  0  0  0  0  0  0  0  0  0  0  0
   -2.0802   -2.7030   -0.2546 H   0  0  0  0  0  0  0  0  0  0  0  0
  1  2  1  0  0  0  0
  2  3  1  0  0  0  0
  3  4  2  0  0  0  0
  4  5  2  0  0  0  0
  4  6  2  0  0  0  0
  6  7  1  0  0  0  0
  7  8  1  0  0  0  0
  4  9  1  0  0  0  0
  9 10  1  0  0  0  0
 10 11  1  0  0  0  0
 11 12  1  0  0  0  0
 12 13  2  0  0  0  0
 12 14  2  0  0  0  0
 14 15  1  0  0  0  0
 15 16  1  0  0  0  0
 12 17  2  0  0  0  0
 17 18  1  0  0  0  0
 18 19  1  0  0  0  0
  1 20  1  0  0  0  0
  1 21  1  0  0  0  0
  1 22  1  0  0  0  0
  2 23  1  0  0  0  0
  2 24  1  0  0  0  0
  7 25  1  0  0  0  0
  7 26  1  0  0  0  0
  8 27  1  0  0  0  0
  8 28  1  0  0  0  0
  8 29  1  0  0  0  0
 10 30  1  0  0  0  0
 10 31  1  0  0  0  0
 15 32  1  0  0  0  0
 15 33  1  0  0  0  0
 16 34  1  0  0  0  0
 16 35  1  0  0  0  0
 16 36  1  0  0  0  0
 18 37  1  0  0  0  0
 18 38  1  0  0  0  0
 19 39  1  0  0  0  0
 19 40  1  0  0  0  0
 19 41  1  0  0  0  0
M  END
