41
 xtb: 6.7.1 (edcfbbe)
C            2.87716191299140       -2.48197342809532        1.57590261285676
C            1.71697143416016       -2.03853773546162        0.72065537529660
O            1.64404897611008       -0.57434866534502        0.67125430642750
P            2.33600674130527        0.32900600638996       -0.46292490646579
S            3.21225369309899       -0.60107372870670       -1.92690153169376
O            3.32640342785786        1.30436460092948        0.34013910325899
C            2.90793143880517        1.95735958386734        1.60166425420552
C            3.61400584702555        1.31072601297646        2.76404969020027
S            0.80779880120219        1.70594655763509       -1.00863247962013
C           -0.14589973332332        0.71409387210808       -2.22059646774331
S           -0.95058440896566       -0.82903653130291       -1.63064618215878
P           -2.30258694813516       -0.08170159853781       -0.18399898836516
S           -3.08354965692293        1.66602388911469       -0.54340207289776
O           -1.44899621790614       -0.25232301603367        1.15966744636582
C           -1.91353494379462        0.27869956818880        2.45354020935864
C           -0.79389615715064        1.08809797099475        3.05575661381483
O           -3.32941438678428       -1.31821688559560       -0.04586272512369
C           -4.43162064803536       -1.48849258906301       -1.00365355324653
C           -5.18408804661110       -2.72902973459337       -0.59903871946892
H            2.78222459393607       -2.10166076970773        2.59687276147582
H            2.88744182751520       -3.57649229909089        1.61561776068107
H            3.82914225103582       -2.14405118336962        1.15481745523077
H            0.75705899803211       -2.34164192090729        1.14518083888915
H            1.79278325504063       -2.42167182513274       -0.30053990092584
H            3.19120438153832        3.00502926476946        1.47977775835261
H            1.82065822206687        1.89549215853380        1.70706190742111
H            3.31739946634360        0.26400699080822        2.87227082016246
H            4.69943028800145        1.36521747892376        2.64129086053620
H            3.34329618629582        1.84476613746198        3.68106360131414
H            0.51346529290740        0.39610134933918       -3.03388152504584
H           -0.90595998591695        1.39545232329452       -2.61365896884092
H           -2.81191235482304        0.88390321853125        2.29823405385576
H           -2.16924136651670       -0.59313790521897        3.06155466382872
H           -1.09457384029695        1.42774050571155        4.05227769511036
H            0.11496018454647        0.48620871271831        3.15593517077107
H           -0.57615329098047        1.96647564260234        2.44129331475158
H           -5.06216172282530       -0.59564159584990       -0.96005054471799
H           -4.00626786905841       -1.58176391328589       -2.00861546579363
H           -4.53883165113051       -3.61104569720133       -0.63858763923281
H           -5.59033955183784       -2.62669236871069        0.41123501131610
H           -6.01710333510533       -2.87839981821184       -1.29265122191219
