 xtb: 6.7.1 (edcfbbe)
          04092507313D

 38 37  0     0  0            999 V2000
    1.7725   -3.8244    0.1347 C   0  0  0  0  0  0  0  0  0  0  0  0
    2.6317   -2.5767    0.2192 C   0  0  0  0  0  0  0  0  0  0  0  0
    2.2859   -1.7094   -0.8779 O   0  0  0  0  0  0  0  0  0  0  0  0
    2.1230   -0.4253   -0.6748 C   0  0  0  0  0  0  0  0  0  0  0  0
    2.2650    0.1467    0.3889 O   0  0  0  0  0  0  0  0  0  0  0  0
    1.7115    0.3048   -1.9403 C   0  0  0  0  0  0  0  0  0  0  0  0
    0.3947    1.0435   -1.6848 C   0  0  0  0  0  0  0  0  0  0  0  0
    0.1973    1.7476   -2.4963 H   0  0  0  0  0  0  0  0  0  0  0  0
    0.4417    1.7904   -0.3674 C   0  0  0  0  0  0  0  0  0  0  0  0
   -0.3326    1.5398    0.5444 O   0  0  0  0  0  0  0  0  0  0  0  0
    1.3310    2.7321   -0.3505 O   0  0  0  0  0  0  0  0  0  0  0  0
    1.5288    3.4605    0.8822 C   0  0  0  0  0  0  0  0  0  0  0  0
    2.4612    4.6185    0.5917 C   0  0  0  0  0  0  0  0  0  0  0  0
   -1.0320   -0.0948   -1.6561 S   0  0  0  0  0  0  0  0  0  0  0  0
   -1.4847   -0.5043    0.3765 P   0  0  0  0  0  0  0  0  0  0  0  0
   -0.3426   -1.0955    1.8536 S   0  0  0  0  0  0  0  0  0  0  0  0
   -2.6623    0.4449    0.9050 O   0  0  0  0  0  0  0  0  0  0  0  0
   -3.7112    0.9083    0.0397 C   0  0  0  0  0  0  0  0  0  0  0  0
   -2.3143   -1.7934   -0.1968 O   0  0  0  0  0  0  0  0  0  0  0  0
   -2.9830   -2.6942    0.6822 C   0  0  0  0  0  0  0  0  0  0  0  0
    0.7270   -3.5626    0.2822 H   0  0  0  0  0  0  0  0  0  0  0  0
    1.8891   -4.2924   -0.8380 H   0  0  0  0  0  0  0  0  0  0  0  0
    2.0720   -4.5178    0.9129 H   0  0  0  0  0  0  0  0  0  0  0  0
    3.6930   -2.8141    0.1114 H   0  0  0  0  0  0  0  0  0  0  0  0
    2.4644   -2.0400    1.1580 H   0  0  0  0  0  0  0  0  0  0  0  0
    1.5945   -0.4039   -2.7579 H   0  0  0  0  0  0  0  0  0  0  0  0
    2.4858    1.0366   -2.1771 H   0  0  0  0  0  0  0  0  0  0  0  0
    0.5530    3.7945    1.2474 H   0  0  0  0  0  0  0  0  0  0  0  0
    1.9514    2.7600    1.6092 H   0  0  0  0  0  0  0  0  0  0  0  0
    2.0229    5.2740   -0.1546 H   0  0  0  0  0  0  0  0  0  0  0  0
    2.6280    5.1772    1.5064 H   0  0  0  0  0  0  0  0  0  0  0  0
    3.4114    4.2458    0.2227 H   0  0  0  0  0  0  0  0  0  0  0  0
   -3.9438    0.1596   -0.7193 H   0  0  0  0  0  0  0  0  0  0  0  0
   -3.3998    1.8367   -0.4381 H   0  0  0  0  0  0  0  0  0  0  0  0
   -4.5686    1.0824    0.6858 H   0  0  0  0  0  0  0  0  0  0  0  0
   -3.2625   -3.5488    0.0711 H   0  0  0  0  0  0  0  0  0  0  0  0
   -3.8672   -2.2227    1.1132 H   0  0  0  0  0  0  0  0  0  0  0  0
   -2.3102   -3.0015    1.4861 H   0  0  0  0  0  0  0  0  0  0  0  0
  1  2  1  0  0  0  0
  2  3  1  0  0  0  0
  3  4  4  0  0  0  0
  4  5  2  0  0  0  0
  4  6  1  0  0  0  0
  6  7  1  0  0  0  0
  7  8  1  0  0  0  0
  7  9  1  0  0  0  0
  9 10  2  0  0  0  0
  9 11  4  0  0  0  0
 11 12  1  0  0  0  0
 12 13  1  0  0  0  0
  7 14  1  0  0  0  0
 14 15  1  0  0  0  0
 15 16  2  0  0  0  0
 15 17  1  0  0  0  0
 17 18  1  0  0  0  0
 15 19  1  0  0  0  0
 19 20  1  0  0  0  0
  1 21  1  0  0  0  0
  1 22  1  0  0  0  0
  1 23  1  0  0  0  0
  2 24  1  0  0  0  0
  2 25  1  0  0  0  0
  6 26  1  0  0  0  0
  6 27  1  0  0  0  0
 12 28  1  0  0  0  0
 12 29  1  0  0  0  0
 13 30  1  0  0  0  0
 13 31  1  0  0  0  0
 13 32  1  0  0  0  0
 18 33  1  0  0  0  0
 18 34  1  0  0  0  0
 18 35  1  0  0  0  0
 20 36  1  0  0  0  0
 20 37  1  0  0  0  0
 20 38  1  0  0  0  0
M  END
