 xtb: 6.7.1 (edcfbbe)
          04092505213D

 41 40  0     0  0            999 V2000
    2.9475    1.1764   -2.6524 C   0  0  0  0  0  0  0  0  0  0  0  0
    3.0400   -0.3189   -2.4285 C   0  0  0  0  0  0  0  0  0  0  0  0
    2.1418   -0.7734   -1.3910 O   0  0  0  0  0  0  0  0  0  0  0  0
    2.2245   -0.3357    0.1286 P   0  0  0  0  0  0  0  0  0  0  0  0
    1.3090    1.3282    0.6415 S   0  0  0  0  0  0  0  0  0  0  0  0
    3.7917   -0.3340    0.3846 O   0  0  0  0  0  0  0  0  0  0  0  0
    4.3812    0.2851    1.5414 C   0  0  0  0  0  0  0  0  0  0  0  0
    4.0767   -0.4798    2.8128 C   0  0  0  0  0  0  0  0  0  0  0  0
    1.5179   -2.1028    1.0630 S   0  0  0  0  0  0  0  0  0  0  0  0
   -0.2363   -1.6903    1.1160 C   0  0  0  0  0  0  0  0  0  0  0  0
   -0.9125   -1.4465   -0.5649 S   0  0  0  0  0  0  0  0  0  0  0  0
   -2.3564    0.0370   -0.1404 P   0  0  0  0  0  0  0  0  0  0  0  0
   -2.2505    0.9512    1.5956 S   0  0  0  0  0  0  0  0  0  0  0  0
   -3.6787   -0.8109   -0.3359 O   0  0  0  0  0  0  0  0  0  0  0  0
   -4.9395   -0.4087    0.2356 C   0  0  0  0  0  0  0  0  0  0  0  0
   -5.4882    0.8275   -0.4445 C   0  0  0  0  0  0  0  0  0  0  0  0
   -2.3785    0.9179   -1.4646 O   0  0  0  0  0  0  0  0  0  0  0  0
   -1.2989    1.7503   -1.9184 C   0  0  0  0  0  0  0  0  0  0  0  0
   -1.3220    3.1129   -1.2547 C   0  0  0  0  0  0  0  0  0  0  0  0
    3.6207    1.4634   -3.4540 H   0  0  0  0  0  0  0  0  0  0  0  0
    1.9317    1.4603   -2.9178 H   0  0  0  0  0  0  0  0  0  0  0  0
    3.2276    1.7084   -1.7438 H   0  0  0  0  0  0  0  0  0  0  0  0
    4.0557   -0.6112   -2.1546 H   0  0  0  0  0  0  0  0  0  0  0  0
    2.7137   -0.8789   -3.3061 H   0  0  0  0  0  0  0  0  0  0  0  0
    5.4492    0.2900    1.3195 H   0  0  0  0  0  0  0  0  0  0  0  0
    4.0092    1.3126    1.6121 H   0  0  0  0  0  0  0  0  0  0  0  0
    4.3357   -1.5287    2.6939 H   0  0  0  0  0  0  0  0  0  0  0  0
    4.6475   -0.0558    3.6327 H   0  0  0  0  0  0  0  0  0  0  0  0
    3.0157   -0.4068    3.0474 H   0  0  0  0  0  0  0  0  0  0  0  0
   -0.3906   -0.7681    1.6848 H   0  0  0  0  0  0  0  0  0  0  0  0
   -0.7335   -2.5329    1.5901 H   0  0  0  0  0  0  0  0  0  0  0  0
   -5.5827   -1.2767    0.0873 H   0  0  0  0  0  0  0  0  0  0  0  0
   -4.7935   -0.2279    1.3055 H   0  0  0  0  0  0  0  0  0  0  0  0
   -5.5558    0.6676   -1.5172 H   0  0  0  0  0  0  0  0  0  0  0  0
   -6.4722    1.0543   -0.0465 H   0  0  0  0  0  0  0  0  0  0  0  0
   -4.8250    1.6713   -0.2564 H   0  0  0  0  0  0  0  0  0  0  0  0
   -0.3484    1.2428   -1.7253 H   0  0  0  0  0  0  0  0  0  0  0  0
   -1.4603    1.8282   -2.9954 H   0  0  0  0  0  0  0  0  0  0  0  0
   -0.5529    3.7389   -1.6956 H   0  0  0  0  0  0  0  0  0  0  0  0
   -2.2930    3.5809   -1.3911 H   0  0  0  0  0  0  0  0  0  0  0  0
   -1.1203    3.0170   -0.1893 H   0  0  0  0  0  0  0  0  0  0  0  0
  1  2  1  0  0  0  0
  2  3  1  0  0  0  0
  3  4  2  0  0  0  0
  4  5  2  0  0  0  0
  4  6  2  0  0  0  0
  6  7  1  0  0  0  0
  7  8  1  0  0  0  0
  4  9  1  0  0  0  0
  9 10  1  0  0  0  0
 10 11  1  0  0  0  0
 11 12  1  0  0  0  0
 12 13  2  0  0  0  0
 12 14  2  0  0  0  0
 14 15  1  0  0  0  0
 15 16  1  0  0  0  0
 12 17  2  0  0  0  0
 17 18  1  0  0  0  0
 18 19  1  0  0  0  0
  1 20  1  0  0  0  0
  1 21  1  0  0  0  0
  1 22  1  0  0  0  0
  2 23  1  0  0  0  0
  2 24  1  0  0  0  0
  7 25  1  0  0  0  0
  7 26  1  0  0  0  0
  8 27  1  0  0  0  0
  8 28  1  0  0  0  0
  8 29  1  0  0  0  0
 10 30  1  0  0  0  0
 10 31  1  0  0  0  0
 15 32  1  0  0  0  0
 15 33  1  0  0  0  0
 16 34  1  0  0  0  0
 16 35  1  0  0  0  0
 16 36  1  0  0  0  0
 18 37  1  0  0  0  0
 18 38  1  0  0  0  0
 19 39  1  0  0  0  0
 19 40  1  0  0  0  0
 19 41  1  0  0  0  0
M  END
