 xtb: 6.7.1 (edcfbbe)
          04092505213D

 41 40  0     0  0            999 V2000
    1.7446   -1.2362   -2.8481 C   0  0  0  0  0  0  0  0  0  0  0  0
    3.1747   -1.0400   -2.3899 C   0  0  0  0  0  0  0  0  0  0  0  0
    3.3124   -1.1799   -0.9644 O   0  0  0  0  0  0  0  0  0  0  0  0
    2.6889   -0.1413    0.0663 P   0  0  0  0  0  0  0  0  0  0  0  0
    2.8085    1.7495   -0.4191 S   0  0  0  0  0  0  0  0  0  0  0  0
    3.5122   -0.4397    1.3788 O   0  0  0  0  0  0  0  0  0  0  0  0
    3.6422   -1.7714    1.9490 C   0  0  0  0  0  0  0  0  0  0  0  0
    2.8618   -1.8639    3.2452 C   0  0  0  0  0  0  0  0  0  0  0  0
    0.7489   -0.9065    0.4656 S   0  0  0  0  0  0  0  0  0  0  0  0
    0.1599    0.6041    1.3050 C   0  0  0  0  0  0  0  0  0  0  0  0
   -1.5940    0.5070    1.6716 S   0  0  0  0  0  0  0  0  0  0  0  0
   -2.3750    0.7473   -0.3101 P   0  0  0  0  0  0  0  0  0  0  0  0
   -1.0617    1.3337   -1.6423 S   0  0  0  0  0  0  0  0  0  0  0  0
   -3.5461    1.7936   -0.2218 O   0  0  0  0  0  0  0  0  0  0  0  0
   -4.8558    1.5510    0.3510 C   0  0  0  0  0  0  0  0  0  0  0  0
   -4.7952    1.2627    1.8357 C   0  0  0  0  0  0  0  0  0  0  0  0
   -3.1792   -0.5982   -0.5795 O   0  0  0  0  0  0  0  0  0  0  0  0
   -2.5887   -1.9100   -0.6340 C   0  0  0  0  0  0  0  0  0  0  0  0
   -2.0676   -2.2235   -2.0220 C   0  0  0  0  0  0  0  0  0  0  0  0
    1.7150   -1.2628   -3.9326 H   0  0  0  0  0  0  0  0  0  0  0  0
    1.3460   -2.1672   -2.4523 H   0  0  0  0  0  0  0  0  0  0  0  0
    1.1236   -0.4072   -2.5073 H   0  0  0  0  0  0  0  0  0  0  0  0
    3.5393   -0.0492   -2.6779 H   0  0  0  0  0  0  0  0  0  0  0  0
    3.8356   -1.8110   -2.7888 H   0  0  0  0  0  0  0  0  0  0  0  0
    3.2967   -2.5075    1.2205 H   0  0  0  0  0  0  0  0  0  0  0  0
    4.7123   -1.8969    2.1190 H   0  0  0  0  0  0  0  0  0  0  0  0
    1.7933   -1.7907    3.0573 H   0  0  0  0  0  0  0  0  0  0  0  0
    3.0713   -2.8197    3.7148 H   0  0  0  0  0  0  0  0  0  0  0  0
    3.1603   -1.0634    3.9168 H   0  0  0  0  0  0  0  0  0  0  0  0
    0.3544    1.4537    0.6456 H   0  0  0  0  0  0  0  0  0  0  0  0
    0.6764    0.7195    2.2558 H   0  0  0  0  0  0  0  0  0  0  0  0
   -5.3911    2.4787    0.1428 H   0  0  0  0  0  0  0  0  0  0  0  0
   -5.3166    0.7247   -0.1925 H   0  0  0  0  0  0  0  0  0  0  0  0
   -4.2707    0.3271    2.0216 H   0  0  0  0  0  0  0  0  0  0  0  0
   -4.2746    2.0619    2.3569 H   0  0  0  0  0  0  0  0  0  0  0  0
   -5.8067    1.1837    2.2218 H   0  0  0  0  0  0  0  0  0  0  0  0
   -1.7859   -1.9769    0.1074 H   0  0  0  0  0  0  0  0  0  0  0  0
   -3.4039   -2.5802   -0.3548 H   0  0  0  0  0  0  0  0  0  0  0  0
   -2.8695   -2.1482   -2.7512 H   0  0  0  0  0  0  0  0  0  0  0  0
   -1.2839   -1.5213   -2.2954 H   0  0  0  0  0  0  0  0  0  0  0  0
   -1.6630   -3.2301   -2.0329 H   0  0  0  0  0  0  0  0  0  0  0  0
  1  2  1  0  0  0  0
  2  3  1  0  0  0  0
  3  4  2  0  0  0  0
  4  5  2  0  0  0  0
  4  6  2  0  0  0  0
  6  7  1  0  0  0  0
  7  8  1  0  0  0  0
  4  9  1  0  0  0  0
  9 10  1  0  0  0  0
 10 11  1  0  0  0  0
 11 12  1  0  0  0  0
 12 13  2  0  0  0  0
 12 14  2  0  0  0  0
 14 15  1  0  0  0  0
 15 16  1  0  0  0  0
 12 17  2  0  0  0  0
 17 18  1  0  0  0  0
 18 19  1  0  0  0  0
  1 20  1  0  0  0  0
  1 21  1  0  0  0  0
  1 22  1  0  0  0  0
  2 23  1  0  0  0  0
  2 24  1  0  0  0  0
  7 25  1  0  0  0  0
  7 26  1  0  0  0  0
  8 27  1  0  0  0  0
  8 28  1  0  0  0  0
  8 29  1  0  0  0  0
 10 30  1  0  0  0  0
 10 31  1  0  0  0  0
 15 32  1  0  0  0  0
 15 33  1  0  0  0  0
 16 34  1  0  0  0  0
 16 35  1  0  0  0  0
 16 36  1  0  0  0  0
 18 37  1  0  0  0  0
 18 38  1  0  0  0  0
 19 39  1  0  0  0  0
 19 40  1  0  0  0  0
 19 41  1  0  0  0  0
M  END
