 xtb: 6.7.1 (edcfbbe)
          04092514023D

 41 40  0     0  0            999 V2000
    5.8473    0.9214   -1.5494 C   0  0  0  0  0  0  0  0  0  0  0  0
    4.4317    0.3845   -1.6346 C   0  0  0  0  0  0  0  0  0  0  0  0
    3.8633    0.4165   -0.3085 O   0  0  0  0  0  0  0  0  0  0  0  0
    2.2962    0.3617   -0.0420 P   0  0  0  0  0  0  0  0  0  0  0  0
    1.2095    1.7181   -0.9397 S   0  0  0  0  0  0  0  0  0  0  0  0
    2.2371    0.5037    1.5217 O   0  0  0  0  0  0  0  0  0  0  0  0
    2.9650   -0.3662    2.4319 C   0  0  0  0  0  0  0  0  0  0  0  0
    1.9823   -1.1808    3.2473 C   0  0  0  0  0  0  0  0  0  0  0  0
    1.8261   -1.6647   -0.5373 S   0  0  0  0  0  0  0  0  0  0  0  0
    0.0690   -1.4687   -0.8570 C   0  0  0  0  0  0  0  0  0  0  0  0
   -0.8600   -1.1538    0.6955 S   0  0  0  0  0  0  0  0  0  0  0  0
   -2.5088   -0.1176   -0.0895 P   0  0  0  0  0  0  0  0  0  0  0  0
   -2.4034    0.4815   -1.9589 S   0  0  0  0  0  0  0  0  0  0  0  0
   -2.8444    1.0467    0.9469 O   0  0  0  0  0  0  0  0  0  0  0  0
   -2.1504    2.3064    0.9581 C   0  0  0  0  0  0  0  0  0  0  0  0
   -1.1367    2.3523    2.0843 C   0  0  0  0  0  0  0  0  0  0  0  0
   -3.6591   -1.1495    0.2549 O   0  0  0  0  0  0  0  0  0  0  0  0
   -5.0350   -0.9092   -0.1346 C   0  0  0  0  0  0  0  0  0  0  0  0
   -5.4325   -1.8424   -1.2612 C   0  0  0  0  0  0  0  0  0  0  0  0
    6.4428    0.3047   -0.8828 H   0  0  0  0  0  0  0  0  0  0  0  0
    6.2911    0.9108   -2.5398 H   0  0  0  0  0  0  0  0  0  0  0  0
    5.8390    1.9405   -1.1730 H   0  0  0  0  0  0  0  0  0  0  0  0
    4.4183   -0.6508   -1.9854 H   0  0  0  0  0  0  0  0  0  0  0  0
    3.8120    0.9978   -2.2964 H   0  0  0  0  0  0  0  0  0  0  0  0
    3.6364   -1.0072    1.8570 H   0  0  0  0  0  0  0  0  0  0  0  0
    3.5495    0.3058    3.0621 H   0  0  0  0  0  0  0  0  0  0  0  0
    1.2876   -0.5218    3.7603 H   0  0  0  0  0  0  0  0  0  0  0  0
    1.4134   -1.8486    2.6041 H   0  0  0  0  0  0  0  0  0  0  0  0
    2.5279   -1.7667    3.9799 H   0  0  0  0  0  0  0  0  0  0  0  0
   -0.2708   -2.4019   -1.2989 H   0  0  0  0  0  0  0  0  0  0  0  0
   -0.0940   -0.6253   -1.5342 H   0  0  0  0  0  0  0  0  0  0  0  0
   -1.6681    2.4623   -0.0133 H   0  0  0  0  0  0  0  0  0  0  0  0
   -2.9293    3.0586    1.0978 H   0  0  0  0  0  0  0  0  0  0  0  0
   -0.6764    3.3352    2.1015 H   0  0  0  0  0  0  0  0  0  0  0  0
   -1.6260    2.1618    3.0352 H   0  0  0  0  0  0  0  0  0  0  0  0
   -0.3576    1.6079    1.9292 H   0  0  0  0  0  0  0  0  0  0  0  0
   -5.6238   -1.0962    0.7651 H   0  0  0  0  0  0  0  0  0  0  0  0
   -5.1488    0.1363   -0.4338 H   0  0  0  0  0  0  0  0  0  0  0  0
   -5.2905   -2.8760   -0.9589 H   0  0  0  0  0  0  0  0  0  0  0  0
   -6.4776   -1.6797   -1.5064 H   0  0  0  0  0  0  0  0  0  0  0  0
   -4.8265   -1.6449   -2.1428 H   0  0  0  0  0  0  0  0  0  0  0  0
  1  2  1  0  0  0  0
  2  3  1  0  0  0  0
  3  4  2  0  0  0  0
  4  5  2  0  0  0  0
  4  6  2  0  0  0  0
  6  7  1  0  0  0  0
  7  8  1  0  0  0  0
  4  9  1  0  0  0  0
  9 10  1  0  0  0  0
 10 11  1  0  0  0  0
 11 12  1  0  0  0  0
 12 13  2  0  0  0  0
 12 14  2  0  0  0  0
 14 15  1  0  0  0  0
 15 16  1  0  0  0  0
 12 17  2  0  0  0  0
 17 18  1  0  0  0  0
 18 19  1  0  0  0  0
  1 20  1  0  0  0  0
  1 21  1  0  0  0  0
  1 22  1  0  0  0  0
  2 23  1  0  0  0  0
  2 24  1  0  0  0  0
  7 25  1  0  0  0  0
  7 26  1  0  0  0  0
  8 27  1  0  0  0  0
  8 28  1  0  0  0  0
  8 29  1  0  0  0  0
 10 30  1  0  0  0  0
 10 31  1  0  0  0  0
 15 32  1  0  0  0  0
 15 33  1  0  0  0  0
 16 34  1  0  0  0  0
 16 35  1  0  0  0  0
 16 36  1  0  0  0  0
 18 37  1  0  0  0  0
 18 38  1  0  0  0  0
 19 39  1  0  0  0  0
 19 40  1  0  0  0  0
 19 41  1  0  0  0  0
M  END
