  18
 
 C          2.8218459162       -0.2074349566        0.1626786677
 C          1.4799385492        0.3339815340       -0.3134787627
 C          0.3211336980       -0.5563616823        0.1291750503
 C         -1.0343281444       -0.0073895010       -0.3228138134
 H         -1.0103568794        0.1360930781       -1.4166092804
 C         -2.1663030839       -0.9711910379        0.0335693851
 O         -1.2160546053        1.2536470993        0.3032713533
 H          3.6294141361        0.4497002149       -0.1499098822
 H          3.0019373042       -1.1969730623       -0.2517774733
 H          2.8388083360       -0.2815152371        1.2475744746
 H          1.3208689158        1.3367045254        0.0869990930
 H          1.4812746731        0.4066061359       -1.4037322749
 H          0.4485382879       -1.5590672811       -0.2812707632
 H          0.3152686198       -0.6254761487        1.2185229845
 H         -3.1207092732       -0.5914309261       -0.3239850686
 H         -1.9871505801       -1.9405254258       -0.4214266796
 H         -2.2191249837       -1.0913817789        1.1129781297
 H         -2.0855120024        1.6019459096        0.0658748577
          18
        -20.89859333
 C          2.8180456922       -0.1961256414        0.2007096035
 C          1.4855318039        0.2913082015       -0.3546078869
 C          0.3171471408       -0.5570015755        0.1431800571
 C         -1.0366355406       -0.0090636222       -0.3268639852
 H         -1.0185335902        0.1129094193       -1.4161598715
 C         -2.1759777918       -0.9517845468        0.0621595215
 O         -1.2656516554        1.3012725829        0.1623184846
 H          3.6339804342        0.4142178439       -0.1779288448
 H          2.9961084731       -1.2287272055       -0.0910922240
 H          2.8233129693       -0.1409636505        1.2870088242
 H          1.3196615806        1.3303096993       -0.0622148113
 H          1.5102464441        0.2588808493       -1.4461483827
 H          0.4251358871       -1.5798878920       -0.2202080271
 H          0.3285346187       -0.5847686205        1.2359093013
 H         -3.1300419942       -0.5164233946       -0.2245104537
 H         -2.0597532536       -1.9060665326       -0.4423279035
 H         -2.1756247873       -1.1217313156        1.1369212707
 H         -1.3423389978        1.2595769121        1.1262810028
