 xtb: 6.7.1 (edcfbbe)
          04032520253D

 17 17  0     0  0            999 V2000
   -1.8643   -1.4123   -0.0013 C   0  0  0  0  0  0  0  0  0  0  0  0
   -0.5465   -0.6932    0.0036 C   0  0  0  0  0  0  0  0  0  0  0  0
    0.6445   -1.3983   -0.0011 C   0  0  0  0  0  0  0  0  0  0  0  0
    1.8715   -0.7545   -0.0036 C   0  0  0  0  0  0  0  0  0  0  0  0
    1.9110    0.6285   -0.0018 C   0  0  0  0  0  0  0  0  0  0  0  0
    0.7353    1.3528    0.0087 C   0  0  0  0  0  0  0  0  0  0  0  0
   -0.5045    0.7121    0.0121 C   0  0  0  0  0  0  0  0  0  0  0  0
   -1.6645    1.4560   -0.0499 N   0  0  0  0  0  0  0  0  0  0  0  0
   -1.7070   -2.4864   -0.0500 H   0  0  0  0  0  0  0  0  0  0  0  0
   -2.4305   -1.1929    0.9048 H   0  0  0  0  0  0  0  0  0  0  0  0
   -2.4615   -1.1102   -0.8605 H   0  0  0  0  0  0  0  0  0  0  0  0
    0.6128   -2.4792   -0.0040 H   0  0  0  0  0  0  0  0  0  0  0  0
    2.7859   -1.3286   -0.0076 H   0  0  0  0  0  0  0  0  0  0  0  0
    2.8595    1.1459   -0.0039 H   0  0  0  0  0  0  0  0  0  0  0  0
    0.7666    2.4334    0.0122 H   0  0  0  0  0  0  0  0  0  0  0  0
   -1.5699    2.4251    0.2063 H   0  0  0  0  0  0  0  0  0  0  0  0
   -2.4983    1.0117    0.2965 H   0  0  0  0  0  0  0  0  0  0  0  0
  1  2  1  0  0  0  0
  2  3  4  0  0  0  0
  3  4  4  0  0  0  0
  4  5  4  0  0  0  0
  5  6  4  0  0  0  0
  2  7  4  0  0  0  0
  6  7  4  0  0  0  0
  7  8  1  0  0  0  0
  1  9  1  0  0  0  0
  1 10  1  0  0  0  0
  1 11  1  0  0  0  0
  3 12  1  0  0  0  0
  4 13  1  0  0  0  0
  5 14  1  0  0  0  0
  6 15  1  0  0  0  0
  8 16  1  0  0  0  0
  8 17  1  0  0  0  0
M  END
