 xtb: 6.7.1 (edcfbbe)
          04092505203D

 41 40  0     0  0            999 V2000
    3.6610   -1.7402   -2.3578 C   0  0  0  0  0  0  0  0  0  0  0  0
    4.0403   -0.3182   -1.9995 C   0  0  0  0  0  0  0  0  0  0  0  0
    3.6009    0.0470   -0.6786 O   0  0  0  0  0  0  0  0  0  0  0  0
    2.0623    0.1509   -0.2909 P   0  0  0  0  0  0  0  0  0  0  0  0
    0.9352    0.9589   -1.6661 S   0  0  0  0  0  0  0  0  0  0  0  0
    2.0693    1.0101    1.0286 O   0  0  0  0  0  0  0  0  0  0  0  0
    2.8417    0.7090    2.2156 C   0  0  0  0  0  0  0  0  0  0  0  0
    4.1797    1.4183    2.1865 C   0  0  0  0  0  0  0  0  0  0  0  0
    1.6313   -1.8354    0.3534 S   0  0  0  0  0  0  0  0  0  0  0  0
   -0.0465   -1.5929    0.9820 C   0  0  0  0  0  0  0  0  0  0  0  0
   -1.2932   -1.4451   -0.3399 S   0  0  0  0  0  0  0  0  0  0  0  0
   -2.2827    0.2964    0.3861 P   0  0  0  0  0  0  0  0  0  0  0  0
   -1.1949    1.5503    1.4236 S   0  0  0  0  0  0  0  0  0  0  0  0
   -3.4523   -0.2174    1.3088 O   0  0  0  0  0  0  0  0  0  0  0  0
   -4.4527   -1.1823    0.8918 C   0  0  0  0  0  0  0  0  0  0  0  0
   -4.2142   -2.5111    1.5814 C   0  0  0  0  0  0  0  0  0  0  0  0
   -3.1021    0.8036   -0.8743 O   0  0  0  0  0  0  0  0  0  0  0  0
   -2.5730    1.3494   -2.0956 C   0  0  0  0  0  0  0  0  0  0  0  0
   -2.2320    2.8175   -1.9426 C   0  0  0  0  0  0  0  0  0  0  0  0
    4.1199   -2.0054   -3.3048 H   0  0  0  0  0  0  0  0  0  0  0  0
    3.9970   -2.4287   -1.5864 H   0  0  0  0  0  0  0  0  0  0  0  0
    2.5793   -1.8228   -2.4559 H   0  0  0  0  0  0  0  0  0  0  0  0
    3.6055    0.3877   -2.7138 H   0  0  0  0  0  0  0  0  0  0  0  0
    5.1224   -0.1865   -1.9587 H   0  0  0  0  0  0  0  0  0  0  0  0
    2.2161    1.0684    3.0356 H   0  0  0  0  0  0  0  0  0  0  0  0
    2.9718   -0.3745    2.2905 H   0  0  0  0  0  0  0  0  0  0  0  0
    4.6933    1.2418    3.1264 H   0  0  0  0  0  0  0  0  0  0  0  0
    4.7879    1.0435    1.3677 H   0  0  0  0  0  0  0  0  0  0  0  0
    4.0306    2.4866    2.0539 H   0  0  0  0  0  0  0  0  0  0  0  0
   -0.0876   -0.6821    1.5867 H   0  0  0  0  0  0  0  0  0  0  0  0
   -0.2688   -2.4765    1.5742 H   0  0  0  0  0  0  0  0  0  0  0  0
   -5.4045   -0.7425    1.1932 H   0  0  0  0  0  0  0  0  0  0  0  0
   -4.4234   -1.2846   -0.1947 H   0  0  0  0  0  0  0  0  0  0  0  0
   -5.0412   -3.1778    1.3590 H   0  0  0  0  0  0  0  0  0  0  0  0
   -3.2906   -2.9633    1.2289 H   0  0  0  0  0  0  0  0  0  0  0  0
   -4.1507   -2.3644    2.6559 H   0  0  0  0  0  0  0  0  0  0  0  0
   -1.6919    0.7797   -2.4017 H   0  0  0  0  0  0  0  0  0  0  0  0
   -3.3784    1.2018   -2.8175 H   0  0  0  0  0  0  0  0  0  0  0  0
   -3.0940    3.3701   -1.5783 H   0  0  0  0  0  0  0  0  0  0  0  0
   -1.4111    2.9401   -1.2383 H   0  0  0  0  0  0  0  0  0  0  0  0
   -1.9230    3.2132   -2.9044 H   0  0  0  0  0  0  0  0  0  0  0  0
  1  2  1  0  0  0  0
  2  3  1  0  0  0  0
  3  4  2  0  0  0  0
  4  5  2  0  0  0  0
  4  6  2  0  0  0  0
  6  7  1  0  0  0  0
  7  8  1  0  0  0  0
  4  9  1  0  0  0  0
  9 10  1  0  0  0  0
 10 11  1  0  0  0  0
 11 12  1  0  0  0  0
 12 13  2  0  0  0  0
 12 14  2  0  0  0  0
 14 15  1  0  0  0  0
 15 16  1  0  0  0  0
 12 17  2  0  0  0  0
 17 18  1  0  0  0  0
 18 19  1  0  0  0  0
  1 20  1  0  0  0  0
  1 21  1  0  0  0  0
  1 22  1  0  0  0  0
  2 23  1  0  0  0  0
  2 24  1  0  0  0  0
  7 25  1  0  0  0  0
  7 26  1  0  0  0  0
  8 27  1  0  0  0  0
  8 28  1  0  0  0  0
  8 29  1  0  0  0  0
 10 30  1  0  0  0  0
 10 31  1  0  0  0  0
 15 32  1  0  0  0  0
 15 33  1  0  0  0  0
 16 34  1  0  0  0  0
 16 35  1  0  0  0  0
 16 36  1  0  0  0  0
 18 37  1  0  0  0  0
 18 38  1  0  0  0  0
 19 39  1  0  0  0  0
 19 40  1  0  0  0  0
 19 41  1  0  0  0  0
M  END
