 xtb: 6.7.1 (edcfbbe)
          04092505203D

 41 40  0     0  0            999 V2000
    4.0387   -2.0040   -2.0035 C   0  0  0  0  0  0  0  0  0  0  0  0
    4.6305   -1.4900   -0.7070 C   0  0  0  0  0  0  0  0  0  0  0  0
    3.6204   -1.1613    0.2630 O   0  0  0  0  0  0  0  0  0  0  0  0
    2.6117    0.0498    0.0698 P   0  0  0  0  0  0  0  0  0  0  0  0
    3.3899    1.6510   -0.7419 S   0  0  0  0  0  0  0  0  0  0  0  0
    2.1235    0.3422    1.5386 O   0  0  0  0  0  0  0  0  0  0  0  0
    1.2470   -0.4589    2.3663 C   0  0  0  0  0  0  0  0  0  0  0  0
    1.6512   -1.9160    2.4245 C   0  0  0  0  0  0  0  0  0  0  0  0
    0.9534   -0.8013   -0.9760 S   0  0  0  0  0  0  0  0  0  0  0  0
    0.2558    0.7638   -1.5448 C   0  0  0  0  0  0  0  0  0  0  0  0
   -0.4884    1.7286   -0.1966 S   0  0  0  0  0  0  0  0  0  0  0  0
   -2.2910    0.6170   -0.0896 P   0  0  0  0  0  0  0  0  0  0  0  0
   -3.1470    0.1652   -1.7940 S   0  0  0  0  0  0  0  0  0  0  0  0
   -3.0386    1.6296    0.8653 O   0  0  0  0  0  0  0  0  0  0  0  0
   -4.4770    1.7284    0.9341 C   0  0  0  0  0  0  0  0  0  0  0  0
   -5.0695    0.6390    1.8038 C   0  0  0  0  0  0  0  0  0  0  0  0
   -1.9751   -0.6288    0.8520 O   0  0  0  0  0  0  0  0  0  0  0  0
   -1.9393   -2.0026    0.4117 C   0  0  0  0  0  0  0  0  0  0  0  0
   -3.2527   -2.6955    0.7136 C   0  0  0  0  0  0  0  0  0  0  0  0
    3.3434   -2.8163   -1.8085 H   0  0  0  0  0  0  0  0  0  0  0  0
    3.5093   -1.2021   -2.5156 H   0  0  0  0  0  0  0  0  0  0  0  0
    4.8386   -2.3599   -2.6449 H   0  0  0  0  0  0  0  0  0  0  0  0
    5.2382   -0.5981   -0.8891 H   0  0  0  0  0  0  0  0  0  0  0  0
    5.2300   -2.2523   -0.2077 H   0  0  0  0  0  0  0  0  0  0  0  0
    1.3244    0.0209    3.3435 H   0  0  0  0  0  0  0  0  0  0  0  0
    0.2268   -0.3432    1.9893 H   0  0  0  0  0  0  0  0  0  0  0  0
    1.5648   -2.3730    1.4402 H   0  0  0  0  0  0  0  0  0  0  0  0
    2.6805   -2.0060    2.7616 H   0  0  0  0  0  0  0  0  0  0  0  0
    0.9992   -2.4359    3.1201 H   0  0  0  0  0  0  0  0  0  0  0  0
   -0.5038    0.5324   -2.2922 H   0  0  0  0  0  0  0  0  0  0  0  0
    1.0530    1.3781   -1.9648 H   0  0  0  0  0  0  0  0  0  0  0  0
   -4.6537    2.7201    1.3534 H   0  0  0  0  0  0  0  0  0  0  0  0
   -4.8792    1.6806   -0.0834 H   0  0  0  0  0  0  0  0  0  0  0  0
   -4.5921    0.6405    2.7799 H   0  0  0  0  0  0  0  0  0  0  0  0
   -6.1339    0.8158    1.9225 H   0  0  0  0  0  0  0  0  0  0  0  0
   -4.9208   -0.3325    1.3382 H   0  0  0  0  0  0  0  0  0  0  0  0
   -1.7238   -2.0358   -0.6596 H   0  0  0  0  0  0  0  0  0  0  0  0
   -1.1133   -2.4541    0.9628 H   0  0  0  0  0  0  0  0  0  0  0  0
   -3.1573   -3.7498    0.4750 H   0  0  0  0  0  0  0  0  0  0  0  0
   -3.5045   -2.5864    1.7648 H   0  0  0  0  0  0  0  0  0  0  0  0
   -4.0480   -2.2705    0.1045 H   0  0  0  0  0  0  0  0  0  0  0  0
  1  2  1  0  0  0  0
  2  3  1  0  0  0  0
  3  4  2  0  0  0  0
  4  5  2  0  0  0  0
  4  6  2  0  0  0  0
  6  7  1  0  0  0  0
  7  8  1  0  0  0  0
  4  9  1  0  0  0  0
  9 10  1  0  0  0  0
 10 11  1  0  0  0  0
 11 12  1  0  0  0  0
 12 13  2  0  0  0  0
 12 14  2  0  0  0  0
 14 15  1  0  0  0  0
 15 16  1  0  0  0  0
 12 17  2  0  0  0  0
 17 18  1  0  0  0  0
 18 19  1  0  0  0  0
  1 20  1  0  0  0  0
  1 21  1  0  0  0  0
  1 22  1  0  0  0  0
  2 23  1  0  0  0  0
  2 24  1  0  0  0  0
  7 25  1  0  0  0  0
  7 26  1  0  0  0  0
  8 27  1  0  0  0  0
  8 28  1  0  0  0  0
  8 29  1  0  0  0  0
 10 30  1  0  0  0  0
 10 31  1  0  0  0  0
 15 32  1  0  0  0  0
 15 33  1  0  0  0  0
 16 34  1  0  0  0  0
 16 35  1  0  0  0  0
 16 36  1  0  0  0  0
 18 37  1  0  0  0  0
 18 38  1  0  0  0  0
 19 39  1  0  0  0  0
 19 40  1  0  0  0  0
 19 41  1  0  0  0  0
M  END
