 xtb: 6.7.1 (edcfbbe)
          04092505203D

 41 40  0     0  0            999 V2000
    3.9030   -0.1985    1.8615 C   0  0  0  0  0  0  0  0  0  0  0  0
    4.2924   -0.6658    0.4745 C   0  0  0  0  0  0  0  0  0  0  0  0
    3.6411    0.0866   -0.5796 O   0  0  0  0  0  0  0  0  0  0  0  0
    2.0752    0.1879   -0.8215 P   0  0  0  0  0  0  0  0  0  0  0  0
    1.7504    0.7896   -2.6538 S   0  0  0  0  0  0  0  0  0  0  0  0
    1.4863    1.1246    0.3332 O   0  0  0  0  0  0  0  0  0  0  0  0
    1.6570    2.5523    0.2645 C   0  0  0  0  0  0  0  0  0  0  0  0
    1.1519    3.1347    1.5675 C   0  0  0  0  0  0  0  0  0  0  0  0
    1.3227   -1.6778   -0.2363 S   0  0  0  0  0  0  0  0  0  0  0  0
   -0.1506   -1.7807   -1.3090 C   0  0  0  0  0  0  0  0  0  0  0  0
   -1.6817   -1.9494   -0.3725 S   0  0  0  0  0  0  0  0  0  0  0  0
   -1.8515    0.0609    0.3119 P   0  0  0  0  0  0  0  0  0  0  0  0
   -1.4473    1.4535   -1.0069 S   0  0  0  0  0  0  0  0  0  0  0  0
   -0.9490    0.1781    1.5965 O   0  0  0  0  0  0  0  0  0  0  0  0
   -0.7521   -0.8284    2.6216 C   0  0  0  0  0  0  0  0  0  0  0  0
   -2.0481   -1.3076    3.2371 C   0  0  0  0  0  0  0  0  0  0  0  0
   -3.3227    0.1397    0.9076 O   0  0  0  0  0  0  0  0  0  0  0  0
   -4.4685    0.4796    0.1107 C   0  0  0  0  0  0  0  0  0  0  0  0
   -4.8045   -0.5943   -0.9042 C   0  0  0  0  0  0  0  0  0  0  0  0
    4.1208    0.8602    1.9804 H   0  0  0  0  0  0  0  0  0  0  0  0
    2.8408   -0.3642    2.0304 H   0  0  0  0  0  0  0  0  0  0  0  0
    4.4698   -0.7639    2.5945 H   0  0  0  0  0  0  0  0  0  0  0  0
    4.0492   -1.7222    0.3371 H   0  0  0  0  0  0  0  0  0  0  0  0
    5.3526   -0.5012    0.2755 H   0  0  0  0  0  0  0  0  0  0  0  0
    2.7165    2.7735    0.0986 H   0  0  0  0  0  0  0  0  0  0  0  0
    1.0824    2.9248   -0.5905 H   0  0  0  0  0  0  0  0  0  0  0  0
    1.7319    2.7499    2.4012 H   0  0  0  0  0  0  0  0  0  0  0  0
    1.2365    4.2158    1.5315 H   0  0  0  0  0  0  0  0  0  0  0  0
    0.1091    2.8590    1.7044 H   0  0  0  0  0  0  0  0  0  0  0  0
   -0.0601   -2.6800   -1.9127 H   0  0  0  0  0  0  0  0  0  0  0  0
   -0.1857   -0.8858   -1.9375 H   0  0  0  0  0  0  0  0  0  0  0  0
   -0.1968   -1.6621    2.1820 H   0  0  0  0  0  0  0  0  0  0  0  0
   -0.1255   -0.3135    3.3516 H   0  0  0  0  0  0  0  0  0  0  0  0
   -2.6287   -0.4639    3.6005 H   0  0  0  0  0  0  0  0  0  0  0  0
   -2.6379   -1.8505    2.5016 H   0  0  0  0  0  0  0  0  0  0  0  0
   -1.8188   -1.9708    4.0655 H   0  0  0  0  0  0  0  0  0  0  0  0
   -5.2666    0.6032    0.8441 H   0  0  0  0  0  0  0  0  0  0  0  0
   -4.2724    1.4331   -0.3900 H   0  0  0  0  0  0  0  0  0  0  0  0
   -4.8757   -1.5650   -0.4204 H   0  0  0  0  0  0  0  0  0  0  0  0
   -5.7522   -0.3559   -1.3763 H   0  0  0  0  0  0  0  0  0  0  0  0
   -4.0328   -0.6385   -1.6710 H   0  0  0  0  0  0  0  0  0  0  0  0
  1  2  1  0  0  0  0
  2  3  1  0  0  0  0
  3  4  2  0  0  0  0
  4  5  2  0  0  0  0
  4  6  1  0  0  0  0
  6  7  1  0  0  0  0
  7  8  1  0  0  0  0
  4  9  1  0  0  0  0
  9 10  1  0  0  0  0
 10 11  1  0  0  0  0
 11 12  1  0  0  0  0
 12 13  2  0  0  0  0
 12 14  2  0  0  0  0
 14 15  1  0  0  0  0
 15 16  1  0  0  0  0
 12 17  2  0  0  0  0
 17 18  1  0  0  0  0
 18 19  1  0  0  0  0
  1 20  1  0  0  0  0
  1 21  1  0  0  0  0
  1 22  1  0  0  0  0
  2 23  1  0  0  0  0
  2 24  1  0  0  0  0
  7 25  1  0  0  0  0
  7 26  1  0  0  0  0
  8 27  1  0  0  0  0
  8 28  1  0  0  0  0
  8 29  1  0  0  0  0
 10 30  1  0  0  0  0
 10 31  1  0  0  0  0
 15 32  1  0  0  0  0
 15 33  1  0  0  0  0
 16 34  1  0  0  0  0
 16 35  1  0  0  0  0
 16 36  1  0  0  0  0
 18 37  1  0  0  0  0
 18 38  1  0  0  0  0
 19 39  1  0  0  0  0
 19 40  1  0  0  0  0
 19 41  1  0  0  0  0
M  END
