 xtb: 6.7.1 (edcfbbe)
          04092505213D

 41 40  0     0  0            999 V2000
    5.2538   -1.5755   -0.9828 C   0  0  0  0  0  0  0  0  0  0  0  0
    4.2357   -0.4881   -1.2635 C   0  0  0  0  0  0  0  0  0  0  0  0
    3.1572   -0.6352   -0.3207 O   0  0  0  0  0  0  0  0  0  0  0  0
    2.2111    0.5867    0.0742 P   0  0  0  0  0  0  0  0  0  0  0  0
    3.1206    2.2997    0.3413 S   0  0  0  0  0  0  0  0  0  0  0  0
    1.4174    0.0028    1.3103 O   0  0  0  0  0  0  0  0  0  0  0  0
    1.9063    0.1469    2.6632 C   0  0  0  0  0  0  0  0  0  0  0  0
    3.1927   -0.6189    2.8836 C   0  0  0  0  0  0  0  0  0  0  0  0
    0.6979    0.5779   -1.4045 S   0  0  0  0  0  0  0  0  0  0  0  0
    0.1723   -1.1609   -1.2597 C   0  0  0  0  0  0  0  0  0  0  0  0
   -0.9459   -1.4781    0.1268 S   0  0  0  0  0  0  0  0  0  0  0  0
   -2.4414   -0.0669   -0.4250 P   0  0  0  0  0  0  0  0  0  0  0  0
   -2.7926    0.1322   -2.3364 S   0  0  0  0  0  0  0  0  0  0  0  0
   -1.9924    1.2951    0.2398 O   0  0  0  0  0  0  0  0  0  0  0  0
   -1.6946    1.4518    1.6459 C   0  0  0  0  0  0  0  0  0  0  0  0
   -2.8956    1.9836    2.3996 C   0  0  0  0  0  0  0  0  0  0  0  0
   -3.6895   -0.4864    0.4675 O   0  0  0  0  0  0  0  0  0  0  0  0
   -4.6666   -1.4484    0.0270 C   0  0  0  0  0  0  0  0  0  0  0  0
   -4.0869   -2.8413   -0.1077 C   0  0  0  0  0  0  0  0  0  0  0  0
    4.7884   -2.5532   -1.0662 H   0  0  0  0  0  0  0  0  0  0  0  0
    6.0610   -1.4995   -1.7038 H   0  0  0  0  0  0  0  0  0  0  0  0
    5.6581   -1.4617    0.0190 H   0  0  0  0  0  0  0  0  0  0  0  0
    3.8245   -0.5760   -2.2731 H   0  0  0  0  0  0  0  0  0  0  0  0
    4.6710    0.5099   -1.1443 H   0  0  0  0  0  0  0  0  0  0  0  0
    2.0510    1.2126    2.8655 H   0  0  0  0  0  0  0  0  0  0  0  0
    1.0921   -0.2445    3.2743 H   0  0  0  0  0  0  0  0  0  0  0  0
    3.0682   -1.6565    2.5856 H   0  0  0  0  0  0  0  0  0  0  0  0
    3.9924   -0.1726    2.2942 H   0  0  0  0  0  0  0  0  0  0  0  0
    3.4621   -0.5728    3.9342 H   0  0  0  0  0  0  0  0  0  0  0  0
    1.0396   -1.8004   -1.1169 H   0  0  0  0  0  0  0  0  0  0  0  0
   -0.3444   -1.3819   -2.1928 H   0  0  0  0  0  0  0  0  0  0  0  0
   -1.3687    0.4878    2.0481 H   0  0  0  0  0  0  0  0  0  0  0  0
   -0.8615    2.1593    1.6709 H   0  0  0  0  0  0  0  0  0  0  0  0
   -3.7084    1.2633    2.3670 H   0  0  0  0  0  0  0  0  0  0  0  0
   -2.6142    2.1641    3.4324 H   0  0  0  0  0  0  0  0  0  0  0  0
   -3.2322    2.9144    1.9513 H   0  0  0  0  0  0  0  0  0  0  0  0
   -5.4377   -1.4055    0.7975 H   0  0  0  0  0  0  0  0  0  0  0  0
   -5.0757   -1.1078   -0.9289 H   0  0  0  0  0  0  0  0  0  0  0  0
   -3.3805   -2.8719   -0.9355 H   0  0  0  0  0  0  0  0  0  0  0  0
   -3.5722   -3.1286    0.8056 H   0  0  0  0  0  0  0  0  0  0  0  0
   -4.8903   -3.5435   -0.3061 H   0  0  0  0  0  0  0  0  0  0  0  0
  1  2  1  0  0  0  0
  2  3  1  0  0  0  0
  3  4  2  0  0  0  0
  4  5  2  0  0  0  0
  4  6  2  0  0  0  0
  6  7  1  0  0  0  0
  7  8  1  0  0  0  0
  4  9  1  0  0  0  0
  9 10  1  0  0  0  0
 10 11  1  0  0  0  0
 11 12  1  0  0  0  0
 12 13  2  0  0  0  0
 12 14  2  0  0  0  0
 14 15  1  0  0  0  0
 15 16  1  0  0  0  0
 12 17  2  0  0  0  0
 17 18  1  0  0  0  0
 18 19  1  0  0  0  0
  1 20  1  0  0  0  0
  1 21  1  0  0  0  0
  1 22  1  0  0  0  0
  2 23  1  0  0  0  0
  2 24  1  0  0  0  0
  7 25  1  0  0  0  0
  7 26  1  0  0  0  0
  8 27  1  0  0  0  0
  8 28  1  0  0  0  0
  8 29  1  0  0  0  0
 10 30  1  0  0  0  0
 10 31  1  0  0  0  0
 15 32  1  0  0  0  0
 15 33  1  0  0  0  0
 16 34  1  0  0  0  0
 16 35  1  0  0  0  0
 16 36  1  0  0  0  0
 18 37  1  0  0  0  0
 18 38  1  0  0  0  0
 19 39  1  0  0  0  0
 19 40  1  0  0  0  0
 19 41  1  0  0  0  0
M  END
