 xtb: 6.7.1 (edcfbbe)
          04032520293D

 19 20  0     0  0            999 V2000
   -2.9246   -0.3668   -0.0000 C   0  0  0  0  0  0  0  0  0  0  0  0
   -2.6847    1.0160   -0.0000 C   0  0  0  0  0  0  0  0  0  0  0  0
   -1.4049    1.4966   -0.0000 C   0  0  0  0  0  0  0  0  0  0  0  0
   -0.3033    0.6153   -0.0000 C   0  0  0  0  0  0  0  0  0  0  0  0
    1.0257    1.0839   -0.0000 C   0  0  0  0  0  0  0  0  0  0  0  0
    2.0779    0.2036   -0.0001 C   0  0  0  0  0  0  0  0  0  0  0  0
    1.8351   -1.1870   -0.0000 C   0  0  0  0  0  0  0  0  0  0  0  0
    0.5576   -1.6626   -0.0000 C   0  0  0  0  0  0  0  0  0  0  0  0
   -0.5467   -0.7831   -0.0000 C   0  0  0  0  0  0  0  0  0  0  0  0
   -1.8776   -1.2466   -0.0000 C   0  0  0  0  0  0  0  0  0  0  0  0
    3.3783    0.6007   -0.0001 O   0  0  0  0  0  0  0  0  0  0  0  0
   -3.9419   -0.7286    0.0000 H   0  0  0  0  0  0  0  0  0  0  0  0
   -3.5219    1.6982   -0.0000 H   0  0  0  0  0  0  0  0  0  0  0  0
   -1.2189    2.5609   -0.0000 H   0  0  0  0  0  0  0  0  0  0  0  0
    1.2000    2.1509   -0.0001 H   0  0  0  0  0  0  0  0  0  0  0  0
    2.6876   -1.8480   -0.0000 H   0  0  0  0  0  0  0  0  0  0  0  0
    0.3746   -2.7268   -0.0000 H   0  0  0  0  0  0  0  0  0  0  0  0
   -2.0547   -2.3124    0.0000 H   0  0  0  0  0  0  0  0  0  0  0  0
    3.4413    1.5677   -0.0001 H   0  0  0  0  0  0  0  0  0  0  0  0
  1  2  4  0  0  0  0
  2  3  2  0  0  0  0
  3  4  4  0  0  0  0
  4  5  4  0  0  0  0
  5  6  4  0  0  0  0
  6  7  4  0  0  0  0
  7  8  2  0  0  0  0
  4  9  4  0  0  0  0
  8  9  4  0  0  0  0
  1 10  2  0  0  0  0
  9 10  4  0  0  0  0
  6 11  1  0  0  0  0
  1 12  1  0  0  0  0
  2 13  1  0  0  0  0
  3 14  1  0  0  0  0
  5 15  1  0  0  0  0
  7 16  1  0  0  0  0
  8 17  1  0  0  0  0
 10 18  1  0  0  0  0
 11 19  1  0  0  0  0
M  END
