 xtb: 6.7.1 (edcfbbe)
          04092505213D

 41 40  0     0  0            999 V2000
    5.6490    0.7383   -1.3809 C   0  0  0  0  0  0  0  0  0  0  0  0
    4.4615    1.1483   -0.5334 C   0  0  0  0  0  0  0  0  0  0  0  0
    3.3764    0.2393   -0.8146 O   0  0  0  0  0  0  0  0  0  0  0  0
    2.2167   -0.0340    0.2318 P   0  0  0  0  0  0  0  0  0  0  0  0
    2.8121   -0.3644    2.0726 S   0  0  0  0  0  0  0  0  0  0  0  0
    1.4053   -1.1924   -0.4710 O   0  0  0  0  0  0  0  0  0  0  0  0
    1.6156   -2.5846   -0.1630 C   0  0  0  0  0  0  0  0  0  0  0  0
    2.9764   -3.0579   -0.6256 C   0  0  0  0  0  0  0  0  0  0  0  0
    0.9188    1.6055   -0.0418 S   0  0  0  0  0  0  0  0  0  0  0  0
   -0.0289    1.3717    1.4874 C   0  0  0  0  0  0  0  0  0  0  0  0
   -0.9334   -0.2026    1.5448 S   0  0  0  0  0  0  0  0  0  0  0  0
   -2.0728   -0.0488   -0.2425 P   0  0  0  0  0  0  0  0  0  0  0  0
   -1.3434   -0.5150   -1.9923 S   0  0  0  0  0  0  0  0  0  0  0  0
   -2.5649    1.4624   -0.0696 O   0  0  0  0  0  0  0  0  0  0  0  0
   -2.9638    2.2587   -1.2026 C   0  0  0  0  0  0  0  0  0  0  0  0
   -4.3288    1.8410   -1.7097 C   0  0  0  0  0  0  0  0  0  0  0  0
   -3.2980   -1.0024    0.0760 O   0  0  0  0  0  0  0  0  0  0  0  0
   -4.1517   -0.8357    1.2368 C   0  0  0  0  0  0  0  0  0  0  0  0
   -5.5471   -1.2900    0.8596 C   0  0  0  0  0  0  0  0  0  0  0  0
    5.3733    0.7465   -2.4315 H   0  0  0  0  0  0  0  0  0  0  0  0
    6.4617    1.4379   -1.2155 H   0  0  0  0  0  0  0  0  0  0  0  0
    5.9765   -0.2618   -1.1110 H   0  0  0  0  0  0  0  0  0  0  0  0
    4.1259    2.1593   -0.7783 H   0  0  0  0  0  0  0  0  0  0  0  0
    4.6942    1.0946    0.5357 H   0  0  0  0  0  0  0  0  0  0  0  0
    1.4991   -2.7202    0.9178 H   0  0  0  0  0  0  0  0  0  0  0  0
    0.8042   -3.0901   -0.6897 H   0  0  0  0  0  0  0  0  0  0  0  0
    3.0636   -4.1263   -0.4555 H   0  0  0  0  0  0  0  0  0  0  0  0
    3.1054   -2.8447   -1.6836 H   0  0  0  0  0  0  0  0  0  0  0  0
    3.7543   -2.5427   -0.0627 H   0  0  0  0  0  0  0  0  0  0  0  0
   -0.7269    2.2012    1.5580 H   0  0  0  0  0  0  0  0  0  0  0  0
    0.6530    1.3486    2.3382 H   0  0  0  0  0  0  0  0  0  0  0  0
   -2.9630    3.2818   -0.8244 H   0  0  0  0  0  0  0  0  0  0  0  0
   -2.2093    2.1511   -1.9880 H   0  0  0  0  0  0  0  0  0  0  0  0
   -4.6160    2.4792   -2.5394 H   0  0  0  0  0  0  0  0  0  0  0  0
   -4.2885    0.8082   -2.0554 H   0  0  0  0  0  0  0  0  0  0  0  0
   -5.0695    1.9246   -0.9184 H   0  0  0  0  0  0  0  0  0  0  0  0
   -3.7343   -1.4483    2.0389 H   0  0  0  0  0  0  0  0  0  0  0  0
   -4.1386    0.2142    1.5394 H   0  0  0  0  0  0  0  0  0  0  0  0
   -6.1925   -1.2156    1.7289 H   0  0  0  0  0  0  0  0  0  0  0  0
   -5.9448   -0.6695    0.0612 H   0  0  0  0  0  0  0  0  0  0  0  0
   -5.5203   -2.3207    0.5179 H   0  0  0  0  0  0  0  0  0  0  0  0
  1  2  1  0  0  0  0
  2  3  1  0  0  0  0
  3  4  2  0  0  0  0
  4  5  2  0  0  0  0
  4  6  2  0  0  0  0
  6  7  1  0  0  0  0
  7  8  1  0  0  0  0
  4  9  1  0  0  0  0
  9 10  1  0  0  0  0
 10 11  1  0  0  0  0
 11 12  1  0  0  0  0
 12 13  2  0  0  0  0
 12 14  1  0  0  0  0
 14 15  1  0  0  0  0
 15 16  1  0  0  0  0
 12 17  2  0  0  0  0
 17 18  1  0  0  0  0
 18 19  1  0  0  0  0
  1 20  1  0  0  0  0
  1 21  1  0  0  0  0
  1 22  1  0  0  0  0
  2 23  1  0  0  0  0
  2 24  1  0  0  0  0
  7 25  1  0  0  0  0
  7 26  1  0  0  0  0
  8 27  1  0  0  0  0
  8 28  1  0  0  0  0
  8 29  1  0  0  0  0
 10 30  1  0  0  0  0
 10 31  1  0  0  0  0
 15 32  1  0  0  0  0
 15 33  1  0  0  0  0
 16 34  1  0  0  0  0
 16 35  1  0  0  0  0
 16 36  1  0  0  0  0
 18 37  1  0  0  0  0
 18 38  1  0  0  0  0
 19 39  1  0  0  0  0
 19 40  1  0  0  0  0
 19 41  1  0  0  0  0
M  END
