38
 xtb: 6.7.1 (edcfbbe)
C            5.00739205110462       -2.50242970412247       -1.87488434373178
C            4.92584854575868       -1.99187443156029       -0.45601235423758
O            3.56943459685564       -2.15741386558289        0.08136432025603
C            2.67202016549788       -1.21946704793623       -0.24047071876859
O            2.90998224460876       -0.23678922166343       -0.92194142168113
C            1.32482863845844       -1.52741408126011        0.36288552592784
C            0.28877345628599       -0.50231592267241       -0.08486998769171
H            0.08647946016898       -0.59167817352925       -1.15510560957894
C            0.66943034826794        0.93865967775841        0.20247498072694
O            0.42284731551868        1.85598512073295       -0.55913173933363
O            1.24606572163899        1.07105625946238        1.39947003030135
C            1.63661058196776        2.42640731355646        1.80072104454861
C            2.96966549898128        2.79728359740402        1.19489291289694
S           -1.28641868190104       -0.86883987421910        0.83061205444089
P           -2.71453278370606        0.21434504679428       -0.31614581818064
S           -2.65584953960698       -0.04920179077037       -2.23643402666766
O           -4.04638996314119       -0.22056291719040        0.47853902978024
C           -4.68563776557616       -1.50050754318813        0.20148205841529
O           -2.60028371693720        1.76614533668720        0.06593649915950
C           -2.53513179616389        2.22728932314546        1.44832723327083
H            4.38364126460900       -1.91115618499207       -2.55024031472585
H            6.04509502124119       -2.43265319467139       -2.21600309172049
H            4.69909546896567       -3.55043946339116       -1.92829056974552
H            5.20514988771408       -0.93862263286097       -0.37541268598027
H            5.54443851963682       -2.58308348156559        0.22093826142990
H            1.43909854532900       -1.54745807257616        1.45206954239953
H            1.02229636010280       -2.53244332694930        0.05216473013919
H            0.83931140683016        3.11634694362017        1.51216378322298
H            1.68989494146812        2.36818248491514        2.88903801773931
H            3.26695028693970        3.78046210025866        1.57309196503142
H            3.73887748733686        2.07319343608699        1.47874521469913
H            2.91413182755998        2.85104766544179        0.10453891412930
H           -5.04938558004585       -1.51747530544894       -0.82841749429721
H           -5.51980298674805       -1.56580936256547        0.89965519869826
H           -3.98827304991822       -2.32475272649491        0.37425191437533
H           -2.37079465527594        3.30276916810104        1.38518402667734
H           -1.70093091861231        1.75101116337388        1.97069432040744
H           -3.47733486599227        2.01542286626165        1.95892635156161
