 xtb: 6.7.1 (edcfbbe)
          04092513573D

 41 40  0     0  0            999 V2000
    4.0010   -2.0171   -2.4344 C   0  0  0  0  0  0  0  0  0  0  0  0
    4.5240   -1.7299   -1.0422 C   0  0  0  0  0  0  0  0  0  0  0  0
    3.4700   -1.4268   -0.1085 O   0  0  0  0  0  0  0  0  0  0  0  0
    2.6439   -0.0677   -0.1198 P   0  0  0  0  0  0  0  0  0  0  0  0
    3.6129    1.5455   -0.6411 S   0  0  0  0  0  0  0  0  0  0  0  0
    2.1263    0.0079    1.3680 O   0  0  0  0  0  0  0  0  0  0  0  0
    1.4811   -1.1099    2.0277 C   0  0  0  0  0  0  0  0  0  0  0  0
    0.6512   -0.5632    3.1699 C   0  0  0  0  0  0  0  0  0  0  0  0
    0.9210   -0.5426   -1.2946 S   0  0  0  0  0  0  0  0  0  0  0  0
    0.2883    1.1472   -1.4366 C   0  0  0  0  0  0  0  0  0  0  0  0
   -0.4459    1.7712    0.1021 S   0  0  0  0  0  0  0  0  0  0  0  0
   -2.2122    0.6069    0.0412 P   0  0  0  0  0  0  0  0  0  0  0  0
   -3.0411    0.3912   -1.7255 S   0  0  0  0  0  0  0  0  0  0  0  0
   -2.9719    1.4356    1.1589 O   0  0  0  0  0  0  0  0  0  0  0  0
   -4.1067    0.9276    1.8970 C   0  0  0  0  0  0  0  0  0  0  0  0
   -5.4124    1.1530    1.1598 C   0  0  0  0  0  0  0  0  0  0  0  0
   -1.8628   -0.7658    0.7717 O   0  0  0  0  0  0  0  0  0  0  0  0
   -2.0134   -2.0659    0.1729 C   0  0  0  0  0  0  0  0  0  0  0  0
   -3.3361   -2.6824    0.5834 C   0  0  0  0  0  0  0  0  0  0  0  0
    4.8244   -2.3496   -3.0590 H   0  0  0  0  0  0  0  0  0  0  0  0
    3.2378   -2.7900   -2.4029 H   0  0  0  0  0  0  0  0  0  0  0  0
    3.5722   -1.1152   -2.8678 H   0  0  0  0  0  0  0  0  0  0  0  0
    5.2233   -0.8885   -1.0584 H   0  0  0  0  0  0  0  0  0  0  0  0
    5.0076   -2.6061   -0.6073 H   0  0  0  0  0  0  0  0  0  0  0  0
    0.8605   -1.6325    1.2938 H   0  0  0  0  0  0  0  0  0  0  0  0
    2.2635   -1.7842    2.3809 H   0  0  0  0  0  0  0  0  0  0  0  0
    0.1664   -1.3866    3.6845 H   0  0  0  0  0  0  0  0  0  0  0  0
    1.2863   -0.0235    3.8663 H   0  0  0  0  0  0  0  0  0  0  0  0
   -0.1060    0.1190    2.7899 H   0  0  0  0  0  0  0  0  0  0  0  0
   -0.4667    1.1373   -2.2235 H   0  0  0  0  0  0  0  0  0  0  0  0
    1.1114    1.8183   -1.6846 H   0  0  0  0  0  0  0  0  0  0  0  0
   -3.9487   -0.1340    2.1020 H   0  0  0  0  0  0  0  0  0  0  0  0
   -4.0815    1.4894    2.8325 H   0  0  0  0  0  0  0  0  0  0  0  0
   -6.2350    0.8200    1.7856 H   0  0  0  0  0  0  0  0  0  0  0  0
   -5.5401    2.2084    0.9344 H   0  0  0  0  0  0  0  0  0  0  0  0
   -5.4283    0.5968    0.2244 H   0  0  0  0  0  0  0  0  0  0  0  0
   -1.9487   -1.9720   -0.9151 H   0  0  0  0  0  0  0  0  0  0  0  0
   -1.1690   -2.6506    0.5403 H   0  0  0  0  0  0  0  0  0  0  0  0
   -3.4124   -2.7302    1.6665 H   0  0  0  0  0  0  0  0  0  0  0  0
   -4.1603   -2.0899    0.1905 H   0  0  0  0  0  0  0  0  0  0  0  0
   -3.4017   -3.6864    0.1769 H   0  0  0  0  0  0  0  0  0  0  0  0
  1  2  1  0  0  0  0
  2  3  1  0  0  0  0
  3  4  2  0  0  0  0
  4  5  2  0  0  0  0
  4  6  2  0  0  0  0
  6  7  1  0  0  0  0
  7  8  1  0  0  0  0
  4  9  1  0  0  0  0
  9 10  1  0  0  0  0
 10 11  1  0  0  0  0
 11 12  1  0  0  0  0
 12 13  2  0  0  0  0
 12 14  2  0  0  0  0
 14 15  1  0  0  0  0
 15 16  1  0  0  0  0
 12 17  2  0  0  0  0
 17 18  1  0  0  0  0
 18 19  1  0  0  0  0
  1 20  1  0  0  0  0
  1 21  1  0  0  0  0
  1 22  1  0  0  0  0
  2 23  1  0  0  0  0
  2 24  1  0  0  0  0
  7 25  1  0  0  0  0
  7 26  1  0  0  0  0
  8 27  1  0  0  0  0
  8 28  1  0  0  0  0
  8 29  1  0  0  0  0
 10 30  1  0  0  0  0
 10 31  1  0  0  0  0
 15 32  1  0  0  0  0
 15 33  1  0  0  0  0
 16 34  1  0  0  0  0
 16 35  1  0  0  0  0
 16 36  1  0  0  0  0
 18 37  1  0  0  0  0
 18 38  1  0  0  0  0
 19 39  1  0  0  0  0
 19 40  1  0  0  0  0
 19 41  1  0  0  0  0
M  END
