 xtb: 6.7.1 (edcfbbe)
          04092505203D

 41 40  0     0  0            999 V2000
    2.6244   -0.5261   -2.8319 C   0  0  0  0  0  0  0  0  0  0  0  0
    3.0836    0.7371   -2.1357 C   0  0  0  0  0  0  0  0  0  0  0  0
    2.2468    1.0775   -1.0045 O   0  0  0  0  0  0  0  0  0  0  0  0
    2.0962    0.2592    0.3266 P   0  0  0  0  0  0  0  0  0  0  0  0
    1.2150    1.3657    1.6835 S   0  0  0  0  0  0  0  0  0  0  0  0
    3.6209   -0.1272    0.5965 O   0  0  0  0  0  0  0  0  0  0  0  0
    4.0831   -1.1280    1.5189 C   0  0  0  0  0  0  0  0  0  0  0  0
    3.7814   -0.7766    2.9617 C   0  0  0  0  0  0  0  0  0  0  0  0
    1.1811   -1.6395   -0.0212 S   0  0  0  0  0  0  0  0  0  0  0  0
   -0.1071   -1.6300    1.2595 C   0  0  0  0  0  0  0  0  0  0  0  0
   -1.7897   -1.8055    0.6086 S   0  0  0  0  0  0  0  0  0  0  0  0
   -2.1038    0.1069   -0.2110 P   0  0  0  0  0  0  0  0  0  0  0  0
   -0.8470    0.8320   -1.5399 S   0  0  0  0  0  0  0  0  0  0  0  0
   -2.2174    0.9747    1.1113 O   0  0  0  0  0  0  0  0  0  0  0  0
   -2.0953    2.4063    1.1121 C   0  0  0  0  0  0  0  0  0  0  0  0
   -3.3181    3.0620    0.5080 C   0  0  0  0  0  0  0  0  0  0  0  0
   -3.6188    0.0322   -0.6834 O   0  0  0  0  0  0  0  0  0  0  0  0
   -4.1938   -1.0075   -1.4977 C   0  0  0  0  0  0  0  0  0  0  0  0
   -3.3707   -1.3201   -2.7297 C   0  0  0  0  0  0  0  0  0  0  0  0
    3.1838   -0.6483   -3.7540 H   0  0  0  0  0  0  0  0  0  0  0  0
    2.7886   -1.3962   -2.1981 H   0  0  0  0  0  0  0  0  0  0  0  0
    1.5635   -0.4544   -3.0626 H   0  0  0  0  0  0  0  0  0  0  0  0
    2.9809    1.6083   -2.7846 H   0  0  0  0  0  0  0  0  0  0  0  0
    4.1138    0.6486   -1.7850 H   0  0  0  0  0  0  0  0  0  0  0  0
    3.6288   -2.0854    1.2474 H   0  0  0  0  0  0  0  0  0  0  0  0
    5.1588   -1.1649    1.3374 H   0  0  0  0  0  0  0  0  0  0  0  0
    4.2279   -1.5205    3.6134 H   0  0  0  0  0  0  0  0  0  0  0  0
    4.1846    0.2036    3.2038 H   0  0  0  0  0  0  0  0  0  0  0  0
    2.7062   -0.7532    3.1308 H   0  0  0  0  0  0  0  0  0  0  0  0
   -0.0291   -0.6972    1.8267 H   0  0  0  0  0  0  0  0  0  0  0  0
    0.0442   -2.4995    1.8938 H   0  0  0  0  0  0  0  0  0  0  0  0
   -1.9632    2.6608    2.1647 H   0  0  0  0  0  0  0  0  0  0  0  0
   -1.1890    2.6829    0.5617 H   0  0  0  0  0  0  0  0  0  0  0  0
   -4.2133    2.7349    1.0297 H   0  0  0  0  0  0  0  0  0  0  0  0
   -3.2236    4.1406    0.5845 H   0  0  0  0  0  0  0  0  0  0  0  0
   -3.4005    2.7829   -0.5420 H   0  0  0  0  0  0  0  0  0  0  0  0
   -4.3091   -1.8977   -0.8731 H   0  0  0  0  0  0  0  0  0  0  0  0
   -5.1756   -0.6111   -1.7630 H   0  0  0  0  0  0  0  0  0  0  0  0
   -3.2039   -0.4184   -3.3146 H   0  0  0  0  0  0  0  0  0  0  0  0
   -2.4023   -1.7272   -2.4400 H   0  0  0  0  0  0  0  0  0  0  0  0
   -3.8943   -2.0517   -3.3365 H   0  0  0  0  0  0  0  0  0  0  0  0
  1  2  1  0  0  0  0
  2  3  1  0  0  0  0
  3  4  2  0  0  0  0
  4  5  2  0  0  0  0
  4  6  2  0  0  0  0
  6  7  1  0  0  0  0
  7  8  1  0  0  0  0
  4  9  1  0  0  0  0
  9 10  1  0  0  0  0
 10 11  1  0  0  0  0
 11 12  1  0  0  0  0
 12 13  2  0  0  0  0
 12 14  2  0  0  0  0
 14 15  1  0  0  0  0
 15 16  1  0  0  0  0
 12 17  2  0  0  0  0
 17 18  1  0  0  0  0
 18 19  1  0  0  0  0
  1 20  1  0  0  0  0
  1 21  1  0  0  0  0
  1 22  1  0  0  0  0
  2 23  1  0  0  0  0
  2 24  1  0  0  0  0
  7 25  1  0  0  0  0
  7 26  1  0  0  0  0
  8 27  1  0  0  0  0
  8 28  1  0  0  0  0
  8 29  1  0  0  0  0
 10 30  1  0  0  0  0
 10 31  1  0  0  0  0
 15 32  1  0  0  0  0
 15 33  1  0  0  0  0
 16 34  1  0  0  0  0
 16 35  1  0  0  0  0
 16 36  1  0  0  0  0
 18 37  1  0  0  0  0
 18 38  1  0  0  0  0
 19 39  1  0  0  0  0
 19 40  1  0  0  0  0
 19 41  1  0  0  0  0
M  END
