 xtb: 6.7.1 (edcfbbe)
          04092505203D

 41 40  0     0  0            999 V2000
    4.5506    0.7610   -2.0424 C   0  0  0  0  0  0  0  0  0  0  0  0
    4.5741    0.8235   -0.5290 C   0  0  0  0  0  0  0  0  0  0  0  0
    3.6758   -0.1316    0.0593 O   0  0  0  0  0  0  0  0  0  0  0  0
    2.0959    0.0048   -0.0535 P   0  0  0  0  0  0  0  0  0  0  0  0
    1.4657    1.8560    0.1292 S   0  0  0  0  0  0  0  0  0  0  0  0
    1.5764   -1.0205    1.0361 O   0  0  0  0  0  0  0  0  0  0  0  0
    1.3638   -0.6438    2.4100 C   0  0  0  0  0  0  0  0  0  0  0  0
    2.6599   -0.3035    3.1121 C   0  0  0  0  0  0  0  0  0  0  0  0
    1.6794   -1.1013   -1.7982 S   0  0  0  0  0  0  0  0  0  0  0  0
   -0.0909   -1.4560   -1.6305 C   0  0  0  0  0  0  0  0  0  0  0  0
   -1.1593    0.0109   -1.6590 S   0  0  0  0  0  0  0  0  0  0  0  0
   -2.0599   -0.1514    0.2747 P   0  0  0  0  0  0  0  0  0  0  0  0
   -1.7005   -1.8021    1.2610 S   0  0  0  0  0  0  0  0  0  0  0  0
   -3.5777    0.2179   -0.0235 O   0  0  0  0  0  0  0  0  0  0  0  0
   -4.3958   -0.3799   -1.0462 C   0  0  0  0  0  0  0  0  0  0  0  0
   -4.4715   -1.8878   -0.9319 C   0  0  0  0  0  0  0  0  0  0  0  0
   -1.6062    1.0875    1.1354 O   0  0  0  0  0  0  0  0  0  0  0  0
   -1.8729    2.4592    0.7514 C   0  0  0  0  0  0  0  0  0  0  0  0
   -3.0513    3.0041    1.5298 C   0  0  0  0  0  0  0  0  0  0  0  0
    5.3117    1.4227   -2.4433 H   0  0  0  0  0  0  0  0  0  0  0  0
    4.7365   -0.2549   -2.3817 H   0  0  0  0  0  0  0  0  0  0  0  0
    3.5753    1.0785   -2.4111 H   0  0  0  0  0  0  0  0  0  0  0  0
    4.2942    1.8234   -0.1809 H   0  0  0  0  0  0  0  0  0  0  0  0
    5.5500    0.5487   -0.1270 H   0  0  0  0  0  0  0  0  0  0  0  0
    0.6698    0.2041    2.4332 H   0  0  0  0  0  0  0  0  0  0  0  0
    0.8762   -1.5182    2.8448 H   0  0  0  0  0  0  0  0  0  0  0  0
    3.0847    0.6054    2.6876 H   0  0  0  0  0  0  0  0  0  0  0  0
    2.4626   -0.1428    4.1673 H   0  0  0  0  0  0  0  0  0  0  0  0
    3.3722   -1.1158    2.9942 H   0  0  0  0  0  0  0  0  0  0  0  0
   -0.2754   -2.0040   -0.7015 H   0  0  0  0  0  0  0  0  0  0  0  0
   -0.3344   -2.0596   -2.5018 H   0  0  0  0  0  0  0  0  0  0  0  0
   -5.3734    0.0799   -0.8918 H   0  0  0  0  0  0  0  0  0  0  0  0
   -3.9964   -0.0841   -2.0203 H   0  0  0  0  0  0  0  0  0  0  0  0
   -5.1715   -2.2695   -1.6681 H   0  0  0  0  0  0  0  0  0  0  0  0
   -3.4923   -2.3302   -1.1095 H   0  0  0  0  0  0  0  0  0  0  0  0
   -4.8011   -2.1772    0.0632 H   0  0  0  0  0  0  0  0  0  0  0  0
   -0.9507    2.9972    0.9817 H   0  0  0  0  0  0  0  0  0  0  0  0
   -2.0485    2.4994   -0.3269 H   0  0  0  0  0  0  0  0  0  0  0  0
   -3.9511    2.4421    1.2934 H   0  0  0  0  0  0  0  0  0  0  0  0
   -2.8588    2.9264    2.5962 H   0  0  0  0  0  0  0  0  0  0  0  0
   -3.1962    4.0468    1.2658 H   0  0  0  0  0  0  0  0  0  0  0  0
  1  2  1  0  0  0  0
  2  3  1  0  0  0  0
  3  4  2  0  0  0  0
  4  5  2  0  0  0  0
  4  6  2  0  0  0  0
  6  7  1  0  0  0  0
  7  8  1  0  0  0  0
  4  9  1  0  0  0  0
  9 10  1  0  0  0  0
 10 11  1  0  0  0  0
 11 12  1  0  0  0  0
 12 13  2  0  0  0  0
 12 14  2  0  0  0  0
 14 15  1  0  0  0  0
 15 16  1  0  0  0  0
 12 17  2  0  0  0  0
 17 18  1  0  0  0  0
 18 19  1  0  0  0  0
  1 20  1  0  0  0  0
  1 21  1  0  0  0  0
  1 22  1  0  0  0  0
  2 23  1  0  0  0  0
  2 24  1  0  0  0  0
  7 25  1  0  0  0  0
  7 26  1  0  0  0  0
  8 27  1  0  0  0  0
  8 28  1  0  0  0  0
  8 29  1  0  0  0  0
 10 30  1  0  0  0  0
 10 31  1  0  0  0  0
 15 32  1  0  0  0  0
 15 33  1  0  0  0  0
 16 34  1  0  0  0  0
 16 35  1  0  0  0  0
 16 36  1  0  0  0  0
 18 37  1  0  0  0  0
 18 38  1  0  0  0  0
 19 39  1  0  0  0  0
 19 40  1  0  0  0  0
 19 41  1  0  0  0  0
M  END
