 xtb: 6.7.1 (edcfbbe)
          04092505203D

 41 40  0     0  0            999 V2000
    4.5798   -1.5707   -1.0272 C   0  0  0  0  0  0  0  0  0  0  0  0
    4.6553   -0.1282   -0.5702 C   0  0  0  0  0  0  0  0  0  0  0  0
    3.5395    0.2362    0.2608 O   0  0  0  0  0  0  0  0  0  0  0  0
    2.0519    0.3498   -0.3010 P   0  0  0  0  0  0  0  0  0  0  0  0
    1.9651    1.1069   -2.1128 S   0  0  0  0  0  0  0  0  0  0  0  0
    1.3726    1.1607    0.8772 O   0  0  0  0  0  0  0  0  0  0  0  0
    1.5519    2.5883    0.9953 C   0  0  0  0  0  0  0  0  0  0  0  0
    0.7338    3.0574    2.1790 C   0  0  0  0  0  0  0  0  0  0  0  0
    1.2324   -1.5506    0.0116 S   0  0  0  0  0  0  0  0  0  0  0  0
   -0.0119   -1.5939   -1.3290 C   0  0  0  0  0  0  0  0  0  0  0  0
   -1.6833   -1.8648   -0.7197 S   0  0  0  0  0  0  0  0  0  0  0  0
   -1.9502    0.0100    0.2565 P   0  0  0  0  0  0  0  0  0  0  0  0
   -1.3709    1.5539   -0.8060 S   0  0  0  0  0  0  0  0  0  0  0  0
   -1.1890    0.0144    1.6357 O   0  0  0  0  0  0  0  0  0  0  0  0
   -1.5629   -0.7038    2.8378 C   0  0  0  0  0  0  0  0  0  0  0  0
   -1.4719   -2.2076    2.6809 C   0  0  0  0  0  0  0  0  0  0  0  0
   -3.4651   -0.0416    0.7283 O   0  0  0  0  0  0  0  0  0  0  0  0
   -4.5774   -0.4410   -0.0945 C   0  0  0  0  0  0  0  0  0  0  0  0
   -4.6947    0.3801   -1.3611 C   0  0  0  0  0  0  0  0  0  0  0  0
    5.4995   -1.8319   -1.5406 H   0  0  0  0  0  0  0  0  0  0  0  0
    4.4393   -2.2309   -0.1751 H   0  0  0  0  0  0  0  0  0  0  0  0
    3.7441   -1.6977   -1.7141 H   0  0  0  0  0  0  0  0  0  0  0  0
    4.6768    0.5469   -1.4318 H   0  0  0  0  0  0  0  0  0  0  0  0
    5.5231    0.0503    0.0660 H   0  0  0  0  0  0  0  0  0  0  0  0
    2.6174    2.7936    1.1306 H   0  0  0  0  0  0  0  0  0  0  0  0
    1.2101    3.0532    0.0637 H   0  0  0  0  0  0  0  0  0  0  0  0
    1.0739    2.5642    3.0848 H   0  0  0  0  0  0  0  0  0  0  0  0
    0.8422    4.1319    2.2841 H   0  0  0  0  0  0  0  0  0  0  0  0
   -0.3136    2.8156    2.0154 H   0  0  0  0  0  0  0  0  0  0  0  0
    0.2141   -2.4399   -1.9728 H   0  0  0  0  0  0  0  0  0  0  0  0
    0.0394   -0.6510   -1.8812 H   0  0  0  0  0  0  0  0  0  0  0  0
   -0.8442   -0.3369    3.5725 H   0  0  0  0  0  0  0  0  0  0  0  0
   -2.5721   -0.3958    3.1170 H   0  0  0  0  0  0  0  0  0  0  0  0
   -0.4948   -2.4898    2.2944 H   0  0  0  0  0  0  0  0  0  0  0  0
   -1.6158   -2.6687    3.6532 H   0  0  0  0  0  0  0  0  0  0  0  0
   -2.2385   -2.5721    2.0010 H   0  0  0  0  0  0  0  0  0  0  0  0
   -4.4624   -1.5019   -0.3319 H   0  0  0  0  0  0  0  0  0  0  0  0
   -5.4413   -0.2954    0.5565 H   0  0  0  0  0  0  0  0  0  0  0  0
   -5.5905    0.0875   -1.8992 H   0  0  0  0  0  0  0  0  0  0  0  0
   -4.7458    1.4403   -1.1242 H   0  0  0  0  0  0  0  0  0  0  0  0
   -3.8276    0.2142   -1.9987 H   0  0  0  0  0  0  0  0  0  0  0  0
  1  2  1  0  0  0  0
  2  3  1  0  0  0  0
  3  4  2  0  0  0  0
  4  5  2  0  0  0  0
  4  6  2  0  0  0  0
  6  7  1  0  0  0  0
  7  8  1  0  0  0  0
  4  9  1  0  0  0  0
  9 10  1  0  0  0  0
 10 11  1  0  0  0  0
 11 12  1  0  0  0  0
 12 13  2  0  0  0  0
 12 14  2  0  0  0  0
 14 15  1  0  0  0  0
 15 16  1  0  0  0  0
 12 17  2  0  0  0  0
 17 18  1  0  0  0  0
 18 19  1  0  0  0  0
  1 20  1  0  0  0  0
  1 21  1  0  0  0  0
  1 22  1  0  0  0  0
  2 23  1  0  0  0  0
  2 24  1  0  0  0  0
  7 25  1  0  0  0  0
  7 26  1  0  0  0  0
  8 27  1  0  0  0  0
  8 28  1  0  0  0  0
  8 29  1  0  0  0  0
 10 30  1  0  0  0  0
 10 31  1  0  0  0  0
 15 32  1  0  0  0  0
 15 33  1  0  0  0  0
 16 34  1  0  0  0  0
 16 35  1  0  0  0  0
 16 36  1  0  0  0  0
 18 37  1  0  0  0  0
 18 38  1  0  0  0  0
 19 39  1  0  0  0  0
 19 40  1  0  0  0  0
 19 41  1  0  0  0  0
M  END
