 xtb: 6.7.1 (edcfbbe)
          04092509473D

 38 37  0     0  0            999 V2000
    5.5474   -0.4970   -0.7946 C   0  0  0  0  0  0  0  0  0  0  0  0
    4.7641   -1.5951   -1.4941 C   0  0  0  0  0  0  0  0  0  0  0  0
    3.5223   -1.8681   -0.8159 O   0  0  0  0  0  0  0  0  0  0  0  0
    2.4709   -1.1216   -1.0941 C   0  0  0  0  0  0  0  0  0  0  0  0
    2.4668   -0.1910   -1.8675 O   0  0  0  0  0  0  0  0  0  0  0  0
    1.2486   -1.6366   -0.3593 C   0  0  0  0  0  0  0  0  0  0  0  0
    0.2142   -0.5409   -0.1557 C   0  0  0  0  0  0  0  0  0  0  0  0
    0.1075    0.0510   -1.0765 H   0  0  0  0  0  0  0  0  0  0  0  0
    0.5573    0.4462    0.9446 C   0  0  0  0  0  0  0  0  0  0  0  0
   -0.2919    0.9700    1.6366 O   0  0  0  0  0  0  0  0  0  0  0  0
    1.8440    0.6717    1.0273 O   0  0  0  0  0  0  0  0  0  0  0  0
    2.3126    1.6534    1.9812 C   0  0  0  0  0  0  0  0  0  0  0  0
    3.7877    1.8954    1.7281 C   0  0  0  0  0  0  0  0  0  0  0  0
   -1.4079   -1.2882    0.2140 S   0  0  0  0  0  0  0  0  0  0  0  0
   -2.6588    0.4039   -0.0304 P   0  0  0  0  0  0  0  0  0  0  0  0
   -1.9871    1.8274   -1.1907 S   0  0  0  0  0  0  0  0  0  0  0  0
   -4.0175   -0.2847   -0.5401 O   0  0  0  0  0  0  0  0  0  0  0  0
   -4.1542   -0.8536   -1.8469 C   0  0  0  0  0  0  0  0  0  0  0  0
   -3.1415    0.9163    1.3810 O   0  0  0  0  0  0  0  0  0  0  0  0
   -3.6825    0.0239    2.3744 C   0  0  0  0  0  0  0  0  0  0  0  0
    6.4948   -0.3525   -1.3030 H   0  0  0  0  0  0  0  0  0  0  0  0
    4.9858    0.4334   -0.8229 H   0  0  0  0  0  0  0  0  0  0  0  0
    5.7342   -0.7704    0.2400 H   0  0  0  0  0  0  0  0  0  0  0  0
    5.2985   -2.5450   -1.4670 H   0  0  0  0  0  0  0  0  0  0  0  0
    4.5409   -1.3119   -2.5266 H   0  0  0  0  0  0  0  0  0  0  0  0
    1.5539   -2.0845    0.5850 H   0  0  0  0  0  0  0  0  0  0  0  0
    0.8078   -2.4197   -0.9813 H   0  0  0  0  0  0  0  0  0  0  0  0
    1.7218    2.5656    1.8547 H   0  0  0  0  0  0  0  0  0  0  0  0
    2.1348    1.2591    2.9860 H   0  0  0  0  0  0  0  0  0  0  0  0
    4.1546    2.6328    2.4346 H   0  0  0  0  0  0  0  0  0  0  0  0
    4.3463    0.9728    1.8520 H   0  0  0  0  0  0  0  0  0  0  0  0
    3.9382    2.2666    0.7182 H   0  0  0  0  0  0  0  0  0  0  0  0
   -3.5511   -1.7577   -1.9277 H   0  0  0  0  0  0  0  0  0  0  0  0
   -3.8489   -0.1312   -2.6050 H   0  0  0  0  0  0  0  0  0  0  0  0
   -5.2108   -1.0896   -1.9520 H   0  0  0  0  0  0  0  0  0  0  0  0
   -3.7835    0.6277    3.2722 H   0  0  0  0  0  0  0  0  0  0  0  0
   -2.9931   -0.8035    2.5442 H   0  0  0  0  0  0  0  0  0  0  0  0
   -4.6488   -0.3533    2.0446 H   0  0  0  0  0  0  0  0  0  0  0  0
  1  2  1  0  0  0  0
  2  3  1  0  0  0  0
  3  4  1  0  0  0  0
  4  5  2  0  0  0  0
  4  6  1  0  0  0  0
  6  7  1  0  0  0  0
  7  8  1  0  0  0  0
  7  9  1  0  0  0  0
  9 10  2  0  0  0  0
  9 11  4  0  0  0  0
 11 12  1  0  0  0  0
 12 13  1  0  0  0  0
  7 14  1  0  0  0  0
 14 15  1  0  0  0  0
 15 16  2  0  0  0  0
 15 17  1  0  0  0  0
 17 18  1  0  0  0  0
 15 19  2  0  0  0  0
 19 20  1  0  0  0  0
  1 21  1  0  0  0  0
  1 22  1  0  0  0  0
  1 23  1  0  0  0  0
  2 24  1  0  0  0  0
  2 25  1  0  0  0  0
  6 26  1  0  0  0  0
  6 27  1  0  0  0  0
 12 28  1  0  0  0  0
 12 29  1  0  0  0  0
 13 30  1  0  0  0  0
 13 31  1  0  0  0  0
 13 32  1  0  0  0  0
 18 33  1  0  0  0  0
 18 34  1  0  0  0  0
 18 35  1  0  0  0  0
 20 36  1  0  0  0  0
 20 37  1  0  0  0  0
 20 38  1  0  0  0  0
M  END
