 xtb: 6.7.1 (edcfbbe)
          04092505203D

 41 40  0     0  0            999 V2000
    5.4300   -0.1935   -0.8022 C   0  0  0  0  0  0  0  0  0  0  0  0
    4.4459   -0.9000    0.1099 C   0  0  0  0  0  0  0  0  0  0  0  0
    3.4211    0.0068    0.5622 O   0  0  0  0  0  0  0  0  0  0  0  0
    2.0095    0.1267   -0.1635 P   0  0  0  0  0  0  0  0  0  0  0  0
    2.0558    0.4302   -2.1033 S   0  0  0  0  0  0  0  0  0  0  0  0
    1.3207    1.2270    0.7379 O   0  0  0  0  0  0  0  0  0  0  0  0
    1.3760    2.6302    0.4169 C   0  0  0  0  0  0  0  0  0  0  0  0
    2.7842    3.1739    0.5198 C   0  0  0  0  0  0  0  0  0  0  0  0
    1.0767   -1.6505    0.4703 S   0  0  0  0  0  0  0  0  0  0  0  0
   -0.0890   -1.9453   -0.9052 C   0  0  0  0  0  0  0  0  0  0  0  0
   -1.8009   -2.0422   -0.3517 S   0  0  0  0  0  0  0  0  0  0  0  0
   -2.0601    0.0192    0.1117 P   0  0  0  0  0  0  0  0  0  0  0  0
   -1.3842    1.2859   -1.2186 S   0  0  0  0  0  0  0  0  0  0  0  0
   -1.3512    0.2832    1.4939 O   0  0  0  0  0  0  0  0  0  0  0  0
   -1.6243   -0.4765    2.6982 C   0  0  0  0  0  0  0  0  0  0  0  0
   -2.5704    0.2843    3.6036 C   0  0  0  0  0  0  0  0  0  0  0  0
   -3.5968    0.0952    0.5017 O   0  0  0  0  0  0  0  0  0  0  0  0
   -4.6780   -0.4498   -0.2794 C   0  0  0  0  0  0  0  0  0  0  0  0
   -4.6832    0.0537   -1.7071 C   0  0  0  0  0  0  0  0  0  0  0  0
    6.2188   -0.8848   -1.0804 H   0  0  0  0  0  0  0  0  0  0  0  0
    4.9265    0.1504   -1.7032 H   0  0  0  0  0  0  0  0  0  0  0  0
    5.8643    0.6622   -0.2928 H   0  0  0  0  0  0  0  0  0  0  0  0
    4.9292   -1.2474    1.0249 H   0  0  0  0  0  0  0  0  0  0  0  0
    3.9794   -1.7478   -0.4003 H   0  0  0  0  0  0  0  0  0  0  0  0
    0.9712    2.7717   -0.5911 H   0  0  0  0  0  0  0  0  0  0  0  0
    0.7016    3.0876    1.1424 H   0  0  0  0  0  0  0  0  0  0  0  0
    2.7668    4.2476    0.3608 H   0  0  0  0  0  0  0  0  0  0  0  0
    3.1998    2.9551    1.4999 H   0  0  0  0  0  0  0  0  0  0  0  0
    3.4115    2.7122   -0.2421 H   0  0  0  0  0  0  0  0  0  0  0  0
    0.1439   -2.9122   -1.3435 H   0  0  0  0  0  0  0  0  0  0  0  0
    0.0241   -1.1410   -1.6385 H   0  0  0  0  0  0  0  0  0  0  0  0
   -2.0367   -1.4505    2.4199 H   0  0  0  0  0  0  0  0  0  0  0  0
   -0.6453   -0.6138    3.1624 H   0  0  0  0  0  0  0  0  0  0  0  0
   -3.5271    0.4313    3.1093 H   0  0  0  0  0  0  0  0  0  0  0  0
   -2.7199   -0.2838    4.5164 H   0  0  0  0  0  0  0  0  0  0  0  0
   -2.1513    1.2560    3.8495 H   0  0  0  0  0  0  0  0  0  0  0  0
   -4.5994   -1.5400   -0.2540 H   0  0  0  0  0  0  0  0  0  0  0  0
   -5.5708   -0.1275    0.2594 H   0  0  0  0  0  0  0  0  0  0  0  0
   -4.6956    1.1410   -1.7271 H   0  0  0  0  0  0  0  0  0  0  0  0
   -3.7909   -0.2874   -2.2303 H   0  0  0  0  0  0  0  0  0  0  0  0
   -5.5606   -0.3260   -2.2205 H   0  0  0  0  0  0  0  0  0  0  0  0
  1  2  1  0  0  0  0
  2  3  1  0  0  0  0
  3  4  2  0  0  0  0
  4  5  2  0  0  0  0
  4  6  2  0  0  0  0
  6  7  1  0  0  0  0
  7  8  1  0  0  0  0
  4  9  1  0  0  0  0
  9 10  1  0  0  0  0
 10 11  1  0  0  0  0
 11 12  1  0  0  0  0
 12 13  2  0  0  0  0
 12 14  2  0  0  0  0
 14 15  1  0  0  0  0
 15 16  1  0  0  0  0
 12 17  2  0  0  0  0
 17 18  1  0  0  0  0
 18 19  1  0  0  0  0
  1 20  1  0  0  0  0
  1 21  1  0  0  0  0
  1 22  1  0  0  0  0
  2 23  1  0  0  0  0
  2 24  1  0  0  0  0
  7 25  1  0  0  0  0
  7 26  1  0  0  0  0
  8 27  1  0  0  0  0
  8 28  1  0  0  0  0
  8 29  1  0  0  0  0
 10 30  1  0  0  0  0
 10 31  1  0  0  0  0
 15 32  1  0  0  0  0
 15 33  1  0  0  0  0
 16 34  1  0  0  0  0
 16 35  1  0  0  0  0
 16 36  1  0  0  0  0
 18 37  1  0  0  0  0
 18 38  1  0  0  0  0
 19 39  1  0  0  0  0
 19 40  1  0  0  0  0
 19 41  1  0  0  0  0
M  END
