 xtb: 6.7.1 (edcfbbe)
          04092514013D

 41 40  0     0  0            999 V2000
    2.5955   -2.9686   -1.3503 C   0  0  0  0  0  0  0  0  0  0  0  0
    3.4647   -1.8172   -1.8120 C   0  0  0  0  0  0  0  0  0  0  0  0
    3.6173   -0.7865   -0.8077 O   0  0  0  0  0  0  0  0  0  0  0  0
    2.4545    0.0438   -0.1139 P   0  0  0  0  0  0  0  0  0  0  0  0
    3.2156    1.6226    0.7485 S   0  0  0  0  0  0  0  0  0  0  0  0
    1.6735   -0.9587    0.8562 O   0  0  0  0  0  0  0  0  0  0  0  0
    2.0682   -1.1761    2.2254 C   0  0  0  0  0  0  0  0  0  0  0  0
    1.0982   -0.4916    3.1671 C   0  0  0  0  0  0  0  0  0  0  0  0
    1.0040    0.3104   -1.6218 S   0  0  0  0  0  0  0  0  0  0  0  0
    0.2687    1.8398   -0.9862 C   0  0  0  0  0  0  0  0  0  0  0  0
   -0.6023    1.6458    0.5933 S   0  0  0  0  0  0  0  0  0  0  0  0
   -2.0688    0.2750   -0.0665 P   0  0  0  0  0  0  0  0  0  0  0  0
   -2.7754    0.5031   -1.8841 S   0  0  0  0  0  0  0  0  0  0  0  0
   -3.1576    0.2911    1.0921 O   0  0  0  0  0  0  0  0  0  0  0  0
   -4.3434    1.1044    1.0559 C   0  0  0  0  0  0  0  0  0  0  0  0
   -4.0506    2.5673    1.3218 C   0  0  0  0  0  0  0  0  0  0  0  0
   -1.3111   -1.0838    0.2311 O   0  0  0  0  0  0  0  0  0  0  0  0
   -1.6183   -2.3137   -0.4536 C   0  0  0  0  0  0  0  0  0  0  0  0
   -2.9404   -2.8984   -0.0016 C   0  0  0  0  0  0  0  0  0  0  0  0
    2.9820   -3.3877   -0.4245 H   0  0  0  0  0  0  0  0  0  0  0  0
    1.5753   -2.6262   -1.1884 H   0  0  0  0  0  0  0  0  0  0  0  0
    2.5922   -3.7375   -2.1167 H   0  0  0  0  0  0  0  0  0  0  0  0
    3.0523   -1.3556   -2.7127 H   0  0  0  0  0  0  0  0  0  0  0  0
    4.4913   -2.1380   -1.9974 H   0  0  0  0  0  0  0  0  0  0  0  0
    2.0536   -2.2598    2.3577 H   0  0  0  0  0  0  0  0  0  0  0  0
    3.0863   -0.8019    2.3728 H   0  0  0  0  0  0  0  0  0  0  0  0
    1.3485   -0.7510    4.1908 H   0  0  0  0  0  0  0  0  0  0  0  0
    1.1579    0.5881    3.0463 H   0  0  0  0  0  0  0  0  0  0  0  0
    0.0820   -0.8102    2.9485 H   0  0  0  0  0  0  0  0  0  0  0  0
   -0.4279    2.1750   -1.7540 H   0  0  0  0  0  0  0  0  0  0  0  0
    1.0530    2.5758   -0.8102 H   0  0  0  0  0  0  0  0  0  0  0  0
   -4.8199    0.9799    0.0779 H   0  0  0  0  0  0  0  0  0  0  0  0
   -4.9771    0.6770    1.8346 H   0  0  0  0  0  0  0  0  0  0  0  0
   -3.4679    2.9902    0.5049 H   0  0  0  0  0  0  0  0  0  0  0  0
   -4.9888    3.1080    1.4017 H   0  0  0  0  0  0  0  0  0  0  0  0
   -3.4904    2.6807    2.2463 H   0  0  0  0  0  0  0  0  0  0  0  0
   -1.6274   -2.1187   -1.5312 H   0  0  0  0  0  0  0  0  0  0  0  0
   -0.7826   -2.9688   -0.2024 H   0  0  0  0  0  0  0  0  0  0  0  0
   -3.0810   -3.8681   -0.4693 H   0  0  0  0  0  0  0  0  0  0  0  0
   -2.9525   -3.0127    1.0791 H   0  0  0  0  0  0  0  0  0  0  0  0
   -3.7579   -2.2416   -0.2959 H   0  0  0  0  0  0  0  0  0  0  0  0
  1  2  1  0  0  0  0
  2  3  1  0  0  0  0
  3  4  2  0  0  0  0
  4  5  2  0  0  0  0
  4  6  1  0  0  0  0
  6  7  1  0  0  0  0
  7  8  1  0  0  0  0
  4  9  1  0  0  0  0
  9 10  1  0  0  0  0
 10 11  1  0  0  0  0
 11 12  1  0  0  0  0
 12 13  2  0  0  0  0
 12 14  2  0  0  0  0
 14 15  1  0  0  0  0
 15 16  1  0  0  0  0
 12 17  2  0  0  0  0
 17 18  1  0  0  0  0
 18 19  1  0  0  0  0
  1 20  1  0  0  0  0
  1 21  1  0  0  0  0
  1 22  1  0  0  0  0
  2 23  1  0  0  0  0
  2 24  1  0  0  0  0
  7 25  1  0  0  0  0
  7 26  1  0  0  0  0
  8 27  1  0  0  0  0
  8 28  1  0  0  0  0
  8 29  1  0  0  0  0
 10 30  1  0  0  0  0
 10 31  1  0  0  0  0
 15 32  1  0  0  0  0
 15 33  1  0  0  0  0
 16 34  1  0  0  0  0
 16 35  1  0  0  0  0
 16 36  1  0  0  0  0
 18 37  1  0  0  0  0
 18 38  1  0  0  0  0
 19 39  1  0  0  0  0
 19 40  1  0  0  0  0
 19 41  1  0  0  0  0
M  END
