 xtb: 6.7.1 (edcfbbe)
          04092505203D

 41 40  0     0  0            999 V2000
    1.6433   -1.5306   -3.2141 C   0  0  0  0  0  0  0  0  0  0  0  0
    1.5260   -0.1994   -2.5006 C   0  0  0  0  0  0  0  0  0  0  0  0
    1.0370   -0.3804   -1.1519 O   0  0  0  0  0  0  0  0  0  0  0  0
    2.0667   -0.4568    0.0561 P   0  0  0  0  0  0  0  0  0  0  0  0
    3.8023   -1.2892   -0.2958 S   0  0  0  0  0  0  0  0  0  0  0  0
    1.1005   -1.1932    1.0735 O   0  0  0  0  0  0  0  0  0  0  0  0
    1.4987   -1.4184    2.4414 C   0  0  0  0  0  0  0  0  0  0  0  0
    2.1045   -2.7973    2.6108 C   0  0  0  0  0  0  0  0  0  0  0  0
    2.2577    1.5314    0.7706 S   0  0  0  0  0  0  0  0  0  0  0  0
    0.5606    2.1658    0.5773 C   0  0  0  0  0  0  0  0  0  0  0  0
   -0.7068    1.2758    1.5274 S   0  0  0  0  0  0  0  0  0  0  0  0
   -1.8395    0.4502   -0.0487 P   0  0  0  0  0  0  0  0  0  0  0  0
   -1.6400    1.2434   -1.8353 S   0  0  0  0  0  0  0  0  0  0  0  0
   -3.3312    0.4997    0.5108 O   0  0  0  0  0  0  0  0  0  0  0  0
   -4.2086    1.6182    0.3036 C   0  0  0  0  0  0  0  0  0  0  0  0
   -3.7476    2.8626    1.0353 C   0  0  0  0  0  0  0  0  0  0  0  0
   -1.5264   -1.0911    0.1089 O   0  0  0  0  0  0  0  0  0  0  0  0
   -1.7607   -2.0353   -0.9503 C   0  0  0  0  0  0  0  0  0  0  0  0
   -3.2373   -2.3043   -1.1540 C   0  0  0  0  0  0  0  0  0  0  0  0
    1.9753   -1.3563   -4.2325 H   0  0  0  0  0  0  0  0  0  0  0  0
    2.3687   -2.1624   -2.7058 H   0  0  0  0  0  0  0  0  0  0  0  0
    0.6831   -2.0388   -3.2314 H   0  0  0  0  0  0  0  0  0  0  0  0
    0.7909    0.4507   -2.9817 H   0  0  0  0  0  0  0  0  0  0  0  0
    2.4965    0.3055   -2.4669 H   0  0  0  0  0  0  0  0  0  0  0  0
    2.2068   -0.6393    2.7455 H   0  0  0  0  0  0  0  0  0  0  0  0
    0.5762   -1.3117    3.0170 H   0  0  0  0  0  0  0  0  0  0  0  0
    3.0130   -2.8845    2.0184 H   0  0  0  0  0  0  0  0  0  0  0  0
    2.3464   -2.9539    3.6571 H   0  0  0  0  0  0  0  0  0  0  0  0
    1.4004   -3.5579    2.2854 H   0  0  0  0  0  0  0  0  0  0  0  0
    0.2773    2.1582   -0.4780 H   0  0  0  0  0  0  0  0  0  0  0  0
    0.6108    3.1816    0.9616 H   0  0  0  0  0  0  0  0  0  0  0  0
   -4.2751    1.8100   -0.7724 H   0  0  0  0  0  0  0  0  0  0  0  0
   -5.1713    1.2665    0.6770 H   0  0  0  0  0  0  0  0  0  0  0  0
   -4.5136    3.6274    0.9559 H   0  0  0  0  0  0  0  0  0  0  0  0
   -3.5661    2.6398    2.0836 H   0  0  0  0  0  0  0  0  0  0  0  0
   -2.8273    3.2390    0.5908 H   0  0  0  0  0  0  0  0  0  0  0  0
   -1.3075   -1.6441   -1.8669 H   0  0  0  0  0  0  0  0  0  0  0  0
   -1.2227   -2.9287   -0.6296 H   0  0  0  0  0  0  0  0  0  0  0  0
   -3.3601   -3.1013   -1.8808 H   0  0  0  0  0  0  0  0  0  0  0  0
   -3.6981   -2.5960   -0.2140 H   0  0  0  0  0  0  0  0  0  0  0  0
   -3.7318   -1.4075   -1.5250 H   0  0  0  0  0  0  0  0  0  0  0  0
  1  2  1  0  0  0  0
  2  3  1  0  0  0  0
  3  4  2  0  0  0  0
  4  5  2  0  0  0  0
  4  6  2  0  0  0  0
  6  7  1  0  0  0  0
  7  8  1  0  0  0  0
  4  9  1  0  0  0  0
  9 10  1  0  0  0  0
 10 11  1  0  0  0  0
 11 12  1  0  0  0  0
 12 13  2  0  0  0  0
 12 14  2  0  0  0  0
 14 15  1  0  0  0  0
 15 16  1  0  0  0  0
 12 17  2  0  0  0  0
 17 18  1  0  0  0  0
 18 19  1  0  0  0  0
  1 20  1  0  0  0  0
  1 21  1  0  0  0  0
  1 22  1  0  0  0  0
  2 23  1  0  0  0  0
  2 24  1  0  0  0  0
  7 25  1  0  0  0  0
  7 26  1  0  0  0  0
  8 27  1  0  0  0  0
  8 28  1  0  0  0  0
  8 29  1  0  0  0  0
 10 30  1  0  0  0  0
 10 31  1  0  0  0  0
 15 32  1  0  0  0  0
 15 33  1  0  0  0  0
 16 34  1  0  0  0  0
 16 35  1  0  0  0  0
 16 36  1  0  0  0  0
 18 37  1  0  0  0  0
 18 38  1  0  0  0  0
 19 39  1  0  0  0  0
 19 40  1  0  0  0  0
 19 41  1  0  0  0  0
M  END
