  22
 
 C         -4.3792389287        0.0025612157       -0.4874434827
 C         -3.5562151605        0.0086590655       -1.5999136250
 C         -2.1805042183        0.0078572490       -1.4374597354
 C         -1.6062935583        0.0009192343       -0.1692206139
 C         -2.4365673731       -0.0052287639        0.9439706787
 C         -3.8113521154       -0.0043214093        0.7767672376
 Cl        -4.8348954472       -0.0119681263        2.1777027017
 C         -0.1328842751        0.0000789131       -0.0066483532
 C          0.5575724599       -1.2033200405        0.0594636380
 C          1.9351365812       -1.2002537208        0.1991286074
 C          2.6391164409       -0.0013924460        0.2748845625
 C          1.9355084573        1.1982014605        0.2080090716
 C          0.5579538376        1.2027280853        0.0684322724
 Cl         2.7940267137        2.6932352408        0.2988307412
 Cl         4.3583803990       -0.0023068832        0.4484227739
 Cl         2.7931816648       -2.6961645533        0.2793248231
 Cl        -1.1445385138        0.0154104830       -2.8317011949
 H         -5.4502170156        0.0031491502       -0.6026911097
 H         -3.9803805781        0.0140233753       -2.5900661050
 H         -2.0033838916       -0.0105858728        1.9305008550
 H          0.0291218254       -2.1403994005       -0.0004364507
 H          0.0298146065        2.1404024391        0.0156317766
          22
        -51.02381267
 C         -4.3825755407        0.5145112094        0.1698599733
 C         -3.5610823628        1.4996491616        0.6874968882
 C         -2.1837429566        1.3550459644        0.6365837283
 C         -1.5990314897        0.2219791192        0.0702653525
 C         -2.4345193382       -0.7719713429       -0.4330270766
 C         -3.8085567272       -0.6186254545       -0.3847300253
 Cl        -4.8254023094       -1.8688547134       -1.0288814386
 C         -0.1370565530        0.0417942341       -0.0004562733
 C          0.4389836304       -1.1242541251        0.4941182916
 C          1.8105960132       -1.2983443301        0.4366569803
 C          2.6294659778       -0.3192208232       -0.1201283867
 C          2.0424504964        0.8376706261       -0.6264133230
 C          0.6720955691        1.0201725869       -0.5694252018
 Cl         3.0401389915        2.0575633640       -1.3327810315
 Cl         4.3415979714       -0.5363661208       -0.1844008343
 Cl         2.5199384967       -2.7420331141        1.0638804543
 Cl        -1.1912283006        2.5902024585        1.3480643452
 H         -5.4536131306        0.6239949714        0.2024039042
 H         -3.9883569884        2.3820798600        1.1341236019
 H         -2.0003442684       -1.6527891366       -0.8766981924
 H         -0.1747617966       -1.8891790859        0.9404016050
 H          0.2417681472        1.9175067812       -0.9822098687
