 xtb: 6.7.1 (edcfbbe)
          04092513583D

 41 40  0     0  0            999 V2000
    0.6323   -2.1743    2.5244 C   0  0  0  0  0  0  0  0  0  0  0  0
    1.7165   -1.1153    2.5322 C   0  0  0  0  0  0  0  0  0  0  0  0
    1.4622   -0.1397    1.4937 O   0  0  0  0  0  0  0  0  0  0  0  0
    2.3047   -0.0691    0.1586 P   0  0  0  0  0  0  0  0  0  0  0  0
    3.0134   -1.7549   -0.5554 S   0  0  0  0  0  0  0  0  0  0  0  0
    3.4250    0.9836    0.5694 O   0  0  0  0  0  0  0  0  0  0  0  0
    4.5411    1.3000   -0.2890 C   0  0  0  0  0  0  0  0  0  0  0  0
    5.6243    1.9338    0.5613 C   0  0  0  0  0  0  0  0  0  0  0  0
    1.0112    1.0455   -1.0797 S   0  0  0  0  0  0  0  0  0  0  0  0
    0.2422   -0.3473   -1.9572 C   0  0  0  0  0  0  0  0  0  0  0  0
   -0.7332   -1.4301   -0.8820 S   0  0  0  0  0  0  0  0  0  0  0  0
   -2.1848   -0.0015   -0.2875 P   0  0  0  0  0  0  0  0  0  0  0  0
   -2.7231    1.2917   -1.6625 S   0  0  0  0  0  0  0  0  0  0  0  0
   -1.5623    0.5961    1.0364 O   0  0  0  0  0  0  0  0  0  0  0  0
   -1.6039    1.9941    1.3774 C   0  0  0  0  0  0  0  0  0  0  0  0
   -2.8840    2.3311    2.1137 C   0  0  0  0  0  0  0  0  0  0  0  0
   -3.3214   -0.9151    0.3391 O   0  0  0  0  0  0  0  0  0  0  0  0
   -4.1610   -1.7789   -0.4570 C   0  0  0  0  0  0  0  0  0  0  0  0
   -5.4901   -1.1145   -0.7624 C   0  0  0  0  0  0  0  0  0  0  0  0
   -0.3465   -1.7049    2.5887 H   0  0  0  0  0  0  0  0  0  0  0  0
    0.6796   -2.7537    1.6044 H   0  0  0  0  0  0  0  0  0  0  0  0
    0.7727   -2.8380    3.3716 H   0  0  0  0  0  0  0  0  0  0  0  0
    2.7022   -1.5626    2.3753 H   0  0  0  0  0  0  0  0  0  0  0  0
    1.7155   -0.5454    3.4627 H   0  0  0  0  0  0  0  0  0  0  0  0
    4.8911    0.3758   -0.7611 H   0  0  0  0  0  0  0  0  0  0  0  0
    4.1899    1.9877   -1.0627 H   0  0  0  0  0  0  0  0  0  0  0  0
    6.4561    2.2151   -0.0764 H   0  0  0  0  0  0  0  0  0  0  0  0
    5.2363    2.8188    1.0572 H   0  0  0  0  0  0  0  0  0  0  0  0
    5.9719    1.2319    1.3140 H   0  0  0  0  0  0  0  0  0  0  0  0
    1.0156   -0.9737   -2.4004 H   0  0  0  0  0  0  0  0  0  0  0  0
   -0.4001    0.0953   -2.7182 H   0  0  0  0  0  0  0  0  0  0  0  0
   -0.7208    2.1479    2.0000 H   0  0  0  0  0  0  0  0  0  0  0  0
   -1.5133    2.5872    0.4608 H   0  0  0  0  0  0  0  0  0  0  0  0
   -2.8555    3.3707    2.4247 H   0  0  0  0  0  0  0  0  0  0  0  0
   -3.7383    2.1790    1.4560 H   0  0  0  0  0  0  0  0  0  0  0  0
   -2.9945    1.6944    2.9871 H   0  0  0  0  0  0  0  0  0  0  0  0
   -3.6362   -2.0486   -1.3781 H   0  0  0  0  0  0  0  0  0  0  0  0
   -4.2972   -2.6720    0.1560 H   0  0  0  0  0  0  0  0  0  0  0  0
   -6.1279   -1.8197   -1.2861 H   0  0  0  0  0  0  0  0  0  0  0  0
   -5.9761   -0.8099    0.1603 H   0  0  0  0  0  0  0  0  0  0  0  0
   -5.3419   -0.2374   -1.3884 H   0  0  0  0  0  0  0  0  0  0  0  0
  1  2  1  0  0  0  0
  2  3  1  0  0  0  0
  3  4  2  0  0  0  0
  4  5  2  0  0  0  0
  4  6  2  0  0  0  0
  6  7  1  0  0  0  0
  7  8  1  0  0  0  0
  4  9  1  0  0  0  0
  9 10  1  0  0  0  0
 10 11  1  0  0  0  0
 11 12  1  0  0  0  0
 12 13  2  0  0  0  0
 12 14  2  0  0  0  0
 14 15  1  0  0  0  0
 15 16  1  0  0  0  0
 12 17  2  0  0  0  0
 17 18  1  0  0  0  0
 18 19  1  0  0  0  0
  1 20  1  0  0  0  0
  1 21  1  0  0  0  0
  1 22  1  0  0  0  0
  2 23  1  0  0  0  0
  2 24  1  0  0  0  0
  7 25  1  0  0  0  0
  7 26  1  0  0  0  0
  8 27  1  0  0  0  0
  8 28  1  0  0  0  0
  8 29  1  0  0  0  0
 10 30  1  0  0  0  0
 10 31  1  0  0  0  0
 15 32  1  0  0  0  0
 15 33  1  0  0  0  0
 16 34  1  0  0  0  0
 16 35  1  0  0  0  0
 16 36  1  0  0  0  0
 18 37  1  0  0  0  0
 18 38  1  0  0  0  0
 19 39  1  0  0  0  0
 19 40  1  0  0  0  0
 19 41  1  0  0  0  0
M  END
