38
 xtb: 6.7.1 (edcfbbe)
C            5.46144864319036       -3.39978340842631       -2.13772721457312
C            4.86938798481863       -2.14928661624800       -1.54262202926606
O            3.41440775069744       -2.33836727074228       -1.50106861947904
C            2.70079762566556       -1.33161314894970       -0.98963436149031
O            3.18217068877379       -0.29222277794218       -0.56997595711593
C            1.22583286660094       -1.64446082621402       -0.99497475349577
C            0.43828361597649       -0.48732502739144       -0.39855534972333
H            0.52507415121108        0.41226574618305       -1.01347898009862
C            0.85665437568305       -0.19855027189670        1.03118332795716
O            1.20518532619957       -1.05374617725120        1.82580545996577
O            0.74597965348384        1.09963431360754        1.31117907789147
C            1.00107333647690        1.49565453177451        2.70016813799260
C            0.69730524293124        2.96753470826745        2.80097044016833
S           -1.35268431543179       -0.98262759373395       -0.35733777230558
P           -2.33236425822993        0.90664824953271       -0.27325095753097
S           -1.69583878882698        2.27343233726357       -1.49280088635435
O           -3.85204726046117        0.39410255754834       -0.42479969186386
C           -4.40695649576674        0.09961859944581       -1.73968732778854
O           -2.32145638190197        1.42364296580148        1.24434019993941
C           -2.62414316658718        0.54263655188481        2.36678776683834
H            5.23020264491114       -4.27541677655411       -1.52466736378449
H            5.09137050598408       -3.56649813758759       -3.15328828419361
H            6.54887854370303       -3.28929669855407       -2.18233591303920
H            5.07940483240502       -1.26408596720080       -2.14974133436941
H            5.21778761789913       -1.97381179833251       -0.52076571866662
H            1.06973544006762       -2.57316214273813       -0.43567662242654
H            0.91234018958982       -1.82868692494087       -2.02744466914886
H            0.35625801921524        0.89516861528944        3.34835320770899
H            2.04730968340467        1.27167512475672        2.92806419043399
H            1.33616088441035        3.54838913753172        2.12984440242457
H           -0.35058511555353        3.16903569809598        2.56043094689951
H            0.88510746194399        3.29826465429227        3.82666109135947
H           -5.40806052571647       -0.28794035551091       -1.55204695328676
H           -3.80443767236442       -0.65443246749175       -2.25307680319398
H           -4.45896975702738        1.01560380492814       -2.33257929395136
H           -2.62131091882580        1.18585526649152        3.24667160774221
H           -1.85192989001340       -0.22544922017816        2.45942454263529
H           -3.60736196450260        0.08368571552726        2.23849969105076
