 xtb: 6.7.1 (edcfbbe)
          04092507313D

 38 37  0     0  0            999 V2000
    5.0541   -0.2084   -1.3144 C   0  0  0  0  0  0  0  0  0  0  0  0
    4.4258   -1.5623   -1.0290 C   0  0  0  0  0  0  0  0  0  0  0  0
    3.0623   -1.5517   -1.4990 O   0  0  0  0  0  0  0  0  0  0  0  0
    2.0781   -1.7323   -0.6508 C   0  0  0  0  0  0  0  0  0  0  0  0
    2.2040   -1.9935    0.5270 O   0  0  0  0  0  0  0  0  0  0  0  0
    0.7326   -1.4958   -1.3133 C   0  0  0  0  0  0  0  0  0  0  0  0
    0.4714    0.0170   -1.2677 C   0  0  0  0  0  0  0  0  0  0  0  0
    1.0891    0.5500   -1.9911 H   0  0  0  0  0  0  0  0  0  0  0  0
    0.7347    0.5293    0.1308 C   0  0  0  0  0  0  0  0  0  0  0  0
   -0.0464    0.3135    1.0379 O   0  0  0  0  0  0  0  0  0  0  0  0
    1.8480    1.1981    0.2305 O   0  0  0  0  0  0  0  0  0  0  0  0
    2.2280    1.7189    1.5274 C   0  0  0  0  0  0  0  0  0  0  0  0
    3.1862    0.7690    2.2259 C   0  0  0  0  0  0  0  0  0  0  0  0
   -1.2641    0.3944   -1.6696 S   0  0  0  0  0  0  0  0  0  0  0  0
   -2.3351    0.2925    0.1801 P   0  0  0  0  0  0  0  0  0  0  0  0
   -2.4098    1.8176    1.4268 S   0  0  0  0  0  0  0  0  0  0  0  0
   -3.7803    0.0909   -0.4929 O   0  0  0  0  0  0  0  0  0  0  0  0
   -4.4596    1.1539   -1.1630 C   0  0  0  0  0  0  0  0  0  0  0  0
   -2.2453   -1.1944    0.7353 O   0  0  0  0  0  0  0  0  0  0  0  0
   -1.8467   -1.5351    2.0647 C   0  0  0  0  0  0  0  0  0  0  0  0
    4.4929    0.5785   -0.8162 H   0  0  0  0  0  0  0  0  0  0  0  0
    6.0772   -0.2040   -0.9531 H   0  0  0  0  0  0  0  0  0  0  0  0
    5.0509   -0.0149   -2.3828 H   0  0  0  0  0  0  0  0  0  0  0  0
    4.4245   -1.7935    0.0398 H   0  0  0  0  0  0  0  0  0  0  0  0
    4.9323   -2.3574   -1.5793 H   0  0  0  0  0  0  0  0  0  0  0  0
   -0.0393   -2.0224   -0.7500 H   0  0  0  0  0  0  0  0  0  0  0  0
    0.7450   -1.8317   -2.3480 H   0  0  0  0  0  0  0  0  0  0  0  0
    2.6992    2.6777    1.3092 H   0  0  0  0  0  0  0  0  0  0  0  0
    1.3194    1.8679    2.1171 H   0  0  0  0  0  0  0  0  0  0  0  0
    2.7441   -0.2231    2.2990 H   0  0  0  0  0  0  0  0  0  0  0  0
    4.1206    0.6962    1.6768 H   0  0  0  0  0  0  0  0  0  0  0  0
    3.3880    1.1396    3.2253 H   0  0  0  0  0  0  0  0  0  0  0  0
   -4.4049    2.0682   -0.5681 H   0  0  0  0  0  0  0  0  0  0  0  0
   -5.4920    0.8275   -1.2602 H   0  0  0  0  0  0  0  0  0  0  0  0
   -4.0164    1.3220   -2.1449 H   0  0  0  0  0  0  0  0  0  0  0  0
   -2.5405   -2.3006    2.4049 H   0  0  0  0  0  0  0  0  0  0  0  0
   -1.8951   -0.6600    2.7148 H   0  0  0  0  0  0  0  0  0  0  0  0
   -0.8258   -1.9170    2.0476 H   0  0  0  0  0  0  0  0  0  0  0  0
  1  2  1  0  0  0  0
  2  3  1  0  0  0  0
  3  4  4  0  0  0  0
  4  5  2  0  0  0  0
  4  6  1  0  0  0  0
  6  7  1  0  0  0  0
  7  8  1  0  0  0  0
  7  9  1  0  0  0  0
  9 10  2  0  0  0  0
  9 11  4  0  0  0  0
 11 12  1  0  0  0  0
 12 13  1  0  0  0  0
  7 14  1  0  0  0  0
 14 15  1  0  0  0  0
 15 16  2  0  0  0  0
 15 17  1  0  0  0  0
 17 18  1  0  0  0  0
 15 19  2  0  0  0  0
 19 20  1  0  0  0  0
  1 21  1  0  0  0  0
  1 22  1  0  0  0  0
  1 23  1  0  0  0  0
  2 24  1  0  0  0  0
  2 25  1  0  0  0  0
  6 26  1  0  0  0  0
  6 27  1  0  0  0  0
 12 28  1  0  0  0  0
 12 29  1  0  0  0  0
 13 30  1  0  0  0  0
 13 31  1  0  0  0  0
 13 32  1  0  0  0  0
 18 33  1  0  0  0  0
 18 34  1  0  0  0  0
 18 35  1  0  0  0  0
 20 36  1  0  0  0  0
 20 37  1  0  0  0  0
 20 38  1  0  0  0  0
M  END
