 xtb: 6.7.1 (edcfbbe)
          04092507313D

 38 37  0     0  0            999 V2000
    3.2390   -1.6079    1.7434 C   0  0  0  0  0  0  0  0  0  0  0  0
    3.0697   -2.1933    0.3520 C   0  0  0  0  0  0  0  0  0  0  0  0
    2.7564   -1.1581   -0.6000 O   0  0  0  0  0  0  0  0  0  0  0  0
    1.5423   -1.0718   -1.0963 C   0  0  0  0  0  0  0  0  0  0  0  0
    0.6160   -1.8002   -0.7973 O   0  0  0  0  0  0  0  0  0  0  0  0
    1.4423    0.0306   -2.1307 C   0  0  0  0  0  0  0  0  0  0  0  0
    0.2400    0.9455   -1.8881 C   0  0  0  0  0  0  0  0  0  0  0  0
    0.1380    1.6328   -2.7330 H   0  0  0  0  0  0  0  0  0  0  0  0
    0.3727    1.7700   -0.6225 C   0  0  0  0  0  0  0  0  0  0  0  0
   -0.5332    1.8698    0.1850 O   0  0  0  0  0  0  0  0  0  0  0  0
    1.5325    2.3527   -0.5291 O   0  0  0  0  0  0  0  0  0  0  0  0
    1.8280    3.1333    0.6516 C   0  0  0  0  0  0  0  0  0  0  0  0
    2.4207    2.2484    1.7345 C   0  0  0  0  0  0  0  0  0  0  0  0
   -1.3567    0.0578   -1.8221 S   0  0  0  0  0  0  0  0  0  0  0  0
   -1.6760   -0.3392    0.2458 P   0  0  0  0  0  0  0  0  0  0  0  0
   -0.3932   -0.5567    1.7262 S   0  0  0  0  0  0  0  0  0  0  0  0
   -2.9367    0.5690    0.5975 O   0  0  0  0  0  0  0  0  0  0  0  0
   -2.9701    1.5918    1.5907 C   0  0  0  0  0  0  0  0  0  0  0  0
   -2.5716   -1.6598    0.0689 O   0  0  0  0  0  0  0  0  0  0  0  0
   -2.0469   -2.9613   -0.1802 C   0  0  0  0  0  0  0  0  0  0  0  0
    2.2996   -1.1796    2.0881 H   0  0  0  0  0  0  0  0  0  0  0  0
    3.5333   -2.3969    2.4273 H   0  0  0  0  0  0  0  0  0  0  0  0
    4.0027   -0.8361    1.7365 H   0  0  0  0  0  0  0  0  0  0  0  0
    2.2678   -2.9364    0.3367 H   0  0  0  0  0  0  0  0  0  0  0  0
    4.0017   -2.6338   -0.0069 H   0  0  0  0  0  0  0  0  0  0  0  0
    1.3172   -0.4480   -3.1034 H   0  0  0  0  0  0  0  0  0  0  0  0
    2.3611    0.6164   -2.1184 H   0  0  0  0  0  0  0  0  0  0  0  0
    2.5441    3.8786    0.3058 H   0  0  0  0  0  0  0  0  0  0  0  0
    0.9081    3.6114    0.9968 H   0  0  0  0  0  0  0  0  0  0  0  0
    2.6716    2.8549    2.5980 H   0  0  0  0  0  0  0  0  0  0  0  0
    1.7024    1.4877    2.0374 H   0  0  0  0  0  0  0  0  0  0  0  0
    3.3169    1.7567    1.3672 H   0  0  0  0  0  0  0  0  0  0  0  0
   -2.8292    2.5597    1.1124 H   0  0  0  0  0  0  0  0  0  0  0  0
   -2.1837    1.4301    2.3307 H   0  0  0  0  0  0  0  0  0  0  0  0
   -3.9502    1.5281    2.0584 H   0  0  0  0  0  0  0  0  0  0  0  0
   -2.8799   -3.6437   -0.0305 H   0  0  0  0  0  0  0  0  0  0  0  0
   -1.2387   -3.1808    0.5190 H   0  0  0  0  0  0  0  0  0  0  0  0
   -1.6674   -3.0285   -1.1995 H   0  0  0  0  0  0  0  0  0  0  0  0
  1  2  1  0  0  0  0
  2  3  1  0  0  0  0
  3  4  4  0  0  0  0
  4  5  2  0  0  0  0
  4  6  1  0  0  0  0
  6  7  1  0  0  0  0
  7  8  1  0  0  0  0
  7  9  1  0  0  0  0
  9 10  2  0  0  0  0
  9 11  4  0  0  0  0
 11 12  1  0  0  0  0
 12 13  1  0  0  0  0
  7 14  1  0  0  0  0
 14 15  1  0  0  0  0
 15 16  2  0  0  0  0
 15 17  1  0  0  0  0
 17 18  1  0  0  0  0
 15 19  1  0  0  0  0
 19 20  1  0  0  0  0
  1 21  1  0  0  0  0
  1 22  1  0  0  0  0
  1 23  1  0  0  0  0
  2 24  1  0  0  0  0
  2 25  1  0  0  0  0
  6 26  1  0  0  0  0
  6 27  1  0  0  0  0
 12 28  1  0  0  0  0
 12 29  1  0  0  0  0
 13 30  1  0  0  0  0
 13 31  1  0  0  0  0
 13 32  1  0  0  0  0
 18 33  1  0  0  0  0
 18 34  1  0  0  0  0
 18 35  1  0  0  0  0
 20 36  1  0  0  0  0
 20 37  1  0  0  0  0
 20 38  1  0  0  0  0
M  END
