 xtb: 6.7.1 (edcfbbe)
          04092507313D

 38 37  0     0  0            999 V2000
    3.2056   -3.8392    0.4364 C   0  0  0  0  0  0  0  0  0  0  0  0
    2.7041   -2.4499    0.7757 C   0  0  0  0  0  0  0  0  0  0  0  0
    2.2628   -1.8256   -0.4451 O   0  0  0  0  0  0  0  0  0  0  0  0
    2.0172   -0.5382   -0.4359 C   0  0  0  0  0  0  0  0  0  0  0  0
    2.1260    0.1839    0.5366 O   0  0  0  0  0  0  0  0  0  0  0  0
    1.6225   -0.0180   -1.8052 C   0  0  0  0  0  0  0  0  0  0  0  0
    0.3867    0.8837   -1.7215 C   0  0  0  0  0  0  0  0  0  0  0  0
    0.3544    1.5498   -2.5863 H   0  0  0  0  0  0  0  0  0  0  0  0
    0.3919    1.7152   -0.4539 C   0  0  0  0  0  0  0  0  0  0  0  0
   -0.4246    1.5482    0.4379 O   0  0  0  0  0  0  0  0  0  0  0  0
    1.2947    2.6463   -0.4733 O   0  0  0  0  0  0  0  0  0  0  0  0
    1.4691    3.4490    0.7151 C   0  0  0  0  0  0  0  0  0  0  0  0
    2.5120    4.5050    0.4119 C   0  0  0  0  0  0  0  0  0  0  0  0
   -1.1783   -0.0534   -1.7926 S   0  0  0  0  0  0  0  0  0  0  0  0
   -1.7925   -0.4454    0.1993 P   0  0  0  0  0  0  0  0  0  0  0  0
   -0.6243   -1.2111    1.5865 S   0  0  0  0  0  0  0  0  0  0  0  0
   -2.8916    0.6203    0.6309 O   0  0  0  0  0  0  0  0  0  0  0  0
   -2.8333    1.4335    1.8028 C   0  0  0  0  0  0  0  0  0  0  0  0
   -2.8982   -1.5397   -0.2259 O   0  0  0  0  0  0  0  0  0  0  0  0
   -2.5340   -2.8554   -0.6455 C   0  0  0  0  0  0  0  0  0  0  0  0
    3.5322   -4.3311    1.3463 H   0  0  0  0  0  0  0  0  0  0  0  0
    2.4081   -4.4194   -0.0173 H   0  0  0  0  0  0  0  0  0  0  0  0
    4.0376   -3.7771   -0.2587 H   0  0  0  0  0  0  0  0  0  0  0  0
    3.4859   -1.8248    1.2183 H   0  0  0  0  0  0  0  0  0  0  0  0
    1.8549   -2.4763    1.4670 H   0  0  0  0  0  0  0  0  0  0  0  0
    1.4388   -0.8519   -2.4806 H   0  0  0  0  0  0  0  0  0  0  0  0
    2.4628    0.5746   -2.1738 H   0  0  0  0  0  0  0  0  0  0  0  0
    0.5028    3.8880    0.9808 H   0  0  0  0  0  0  0  0  0  0  0  0
    1.7828    2.7762    1.5193 H   0  0  0  0  0  0  0  0  0  0  0  0
    3.4515    4.0316    0.1447 H   0  0  0  0  0  0  0  0  0  0  0  0
    2.1830    5.1299   -0.4128 H   0  0  0  0  0  0  0  0  0  0  0  0
    2.6602    5.1211    1.2923 H   0  0  0  0  0  0  0  0  0  0  0  0
   -2.0425    1.0881    2.4712 H   0  0  0  0  0  0  0  0  0  0  0  0
   -3.8034    1.3461    2.2884 H   0  0  0  0  0  0  0  0  0  0  0  0
   -2.6394    2.4630    1.5067 H   0  0  0  0  0  0  0  0  0  0  0  0
   -1.7785   -3.2660    0.0283 H   0  0  0  0  0  0  0  0  0  0  0  0
   -2.1521   -2.8336   -1.6665 H   0  0  0  0  0  0  0  0  0  0  0  0
   -3.4469   -3.4432   -0.5920 H   0  0  0  0  0  0  0  0  0  0  0  0
  1  2  1  0  0  0  0
  2  3  1  0  0  0  0
  3  4  4  0  0  0  0
  4  5  2  0  0  0  0
  4  6  1  0  0  0  0
  6  7  1  0  0  0  0
  7  8  1  0  0  0  0
  7  9  1  0  0  0  0
  9 10  2  0  0  0  0
  9 11  4  0  0  0  0
 11 12  1  0  0  0  0
 12 13  1  0  0  0  0
  7 14  1  0  0  0  0
 14 15  1  0  0  0  0
 15 16  2  0  0  0  0
 15 17  2  0  0  0  0
 17 18  1  0  0  0  0
 15 19  1  0  0  0  0
 19 20  1  0  0  0  0
  1 21  1  0  0  0  0
  1 22  1  0  0  0  0
  1 23  1  0  0  0  0
  2 24  1  0  0  0  0
  2 25  1  0  0  0  0
  6 26  1  0  0  0  0
  6 27  1  0  0  0  0
 12 28  1  0  0  0  0
 12 29  1  0  0  0  0
 13 30  1  0  0  0  0
 13 31  1  0  0  0  0
 13 32  1  0  0  0  0
 18 33  1  0  0  0  0
 18 34  1  0  0  0  0
 18 35  1  0  0  0  0
 20 36  1  0  0  0  0
 20 37  1  0  0  0  0
 20 38  1  0  0  0  0
M  END
