 xtb: 6.7.1 (edcfbbe)
          04092507313D

 38 37  0     0  0            999 V2000
    5.2753   -2.2272    0.6393 C   0  0  0  0  0  0  0  0  0  0  0  0
    4.6211   -1.1316   -0.1804 C   0  0  0  0  0  0  0  0  0  0  0  0
    3.1943   -1.3367   -0.1524 O   0  0  0  0  0  0  0  0  0  0  0  0
    2.4699   -0.8316   -1.1242 C   0  0  0  0  0  0  0  0  0  0  0  0
    2.9124   -0.1881   -2.0516 O   0  0  0  0  0  0  0  0  0  0  0  0
    1.0000   -1.1778   -0.9616 C   0  0  0  0  0  0  0  0  0  0  0  0
    0.1544    0.0128   -1.3972 C   0  0  0  0  0  0  0  0  0  0  0  0
    0.5182    0.3651   -2.3699 H   0  0  0  0  0  0  0  0  0  0  0  0
    0.2390    1.1742   -0.4305 C   0  0  0  0  0  0  0  0  0  0  0  0
   -0.7077    1.9005   -0.1900 O   0  0  0  0  0  0  0  0  0  0  0  0
    1.4277    1.3094    0.0838 O   0  0  0  0  0  0  0  0  0  0  0  0
    1.6293    2.3669    1.0478 C   0  0  0  0  0  0  0  0  0  0  0  0
    3.0734    2.3118    1.5008 C   0  0  0  0  0  0  0  0  0  0  0  0
   -1.6018   -0.3933   -1.6630 S   0  0  0  0  0  0  0  0  0  0  0  0
   -2.3900   -0.1187    0.2869 P   0  0  0  0  0  0  0  0  0  0  0  0
   -1.1947   -0.3636    1.8311 S   0  0  0  0  0  0  0  0  0  0  0  0
   -3.3658    1.1288    0.2908 O   0  0  0  0  0  0  0  0  0  0  0  0
   -3.2100    2.3157    1.0724 C   0  0  0  0  0  0  0  0  0  0  0  0
   -3.5682   -1.1969    0.2511 O   0  0  0  0  0  0  0  0  0  0  0  0
   -3.2869   -2.6005    0.2175 C   0  0  0  0  0  0  0  0  0  0  0  0
    5.0615   -3.1998    0.2061 H   0  0  0  0  0  0  0  0  0  0  0  0
    6.3488   -2.0710    0.6545 H   0  0  0  0  0  0  0  0  0  0  0  0
    4.8946   -2.2065    1.6559 H   0  0  0  0  0  0  0  0  0  0  0  0
    4.9529   -1.1435   -1.2231 H   0  0  0  0  0  0  0  0  0  0  0  0
    4.8243   -0.1425    0.2398 H   0  0  0  0  0  0  0  0  0  0  0  0
    0.8068   -1.4554    0.0751 H   0  0  0  0  0  0  0  0  0  0  0  0
    0.7770   -2.0273   -1.6097 H   0  0  0  0  0  0  0  0  0  0  0  0
    1.3832    3.3190    0.5690 H   0  0  0  0  0  0  0  0  0  0  0  0
    0.9337    2.1986    1.8762 H   0  0  0  0  0  0  0  0  0  0  0  0
    3.7339    2.4342    0.6468 H   0  0  0  0  0  0  0  0  0  0  0  0
    3.2550    3.1101    2.2125 H   0  0  0  0  0  0  0  0  0  0  0  0
    3.2754    1.3560    1.9755 H   0  0  0  0  0  0  0  0  0  0  0  0
   -2.7437    3.0879    0.4633 H   0  0  0  0  0  0  0  0  0  0  0  0
   -2.5914    2.1173    1.9495 H   0  0  0  0  0  0  0  0  0  0  0  0
   -4.2136    2.6069    1.3740 H   0  0  0  0  0  0  0  0  0  0  0  0
   -2.8935   -2.8811   -0.7595 H   0  0  0  0  0  0  0  0  0  0  0  0
   -4.2392   -3.0914    0.4009 H   0  0  0  0  0  0  0  0  0  0  0  0
   -2.5701   -2.8584    0.9994 H   0  0  0  0  0  0  0  0  0  0  0  0
  1  2  1  0  0  0  0
  2  3  1  0  0  0  0
  3  4  4  0  0  0  0
  4  5  2  0  0  0  0
  4  6  1  0  0  0  0
  6  7  1  0  0  0  0
  7  8  1  0  0  0  0
  7  9  1  0  0  0  0
  9 10  2  0  0  0  0
  9 11  4  0  0  0  0
 11 12  1  0  0  0  0
 12 13  1  0  0  0  0
  7 14  1  0  0  0  0
 14 15  1  0  0  0  0
 15 16  2  0  0  0  0
 15 17  2  0  0  0  0
 17 18  1  0  0  0  0
 15 19  1  0  0  0  0
 19 20  1  0  0  0  0
  1 21  1  0  0  0  0
  1 22  1  0  0  0  0
  1 23  1  0  0  0  0
  2 24  1  0  0  0  0
  2 25  1  0  0  0  0
  6 26  1  0  0  0  0
  6 27  1  0  0  0  0
 12 28  1  0  0  0  0
 12 29  1  0  0  0  0
 13 30  1  0  0  0  0
 13 31  1  0  0  0  0
 13 32  1  0  0  0  0
 18 33  1  0  0  0  0
 18 34  1  0  0  0  0
 18 35  1  0  0  0  0
 20 36  1  0  0  0  0
 20 37  1  0  0  0  0
 20 38  1  0  0  0  0
M  END
