 xtb: 6.7.1 (edcfbbe)
          04092505203D

 41 40  0     0  0            999 V2000
    4.5699    0.1173   -1.8284 C   0  0  0  0  0  0  0  0  0  0  0  0
    4.3465    1.0600   -0.6638 C   0  0  0  0  0  0  0  0  0  0  0  0
    3.4410    0.5190    0.3143 O   0  0  0  0  0  0  0  0  0  0  0  0
    1.8940    0.2915    0.0239 P   0  0  0  0  0  0  0  0  0  0  0  0
    1.0308    1.7133   -1.0059 S   0  0  0  0  0  0  0  0  0  0  0  0
    1.2870    0.1467    1.4704 O   0  0  0  0  0  0  0  0  0  0  0  0
    1.6951   -0.8478    2.4421 C   0  0  0  0  0  0  0  0  0  0  0  0
    2.7780   -0.3081    3.3528 C   0  0  0  0  0  0  0  0  0  0  0  0
    1.8434   -1.6621   -0.8193 S   0  0  0  0  0  0  0  0  0  0  0  0
    0.0998   -1.7082   -1.2826 C   0  0  0  0  0  0  0  0  0  0  0  0
   -1.0234   -1.7941    0.1571 S   0  0  0  0  0  0  0  0  0  0  0  0
   -2.1173   -0.0274   -0.1218 P   0  0  0  0  0  0  0  0  0  0  0  0
   -2.2939    0.6649   -1.9526 S   0  0  0  0  0  0  0  0  0  0  0  0
   -1.4417    0.9069    0.9631 O   0  0  0  0  0  0  0  0  0  0  0  0
   -1.8105    2.2979    1.0835 C   0  0  0  0  0  0  0  0  0  0  0  0
   -0.9407    2.9103    2.1601 C   0  0  0  0  0  0  0  0  0  0  0  0
   -3.5177   -0.3118    0.5827 O   0  0  0  0  0  0  0  0  0  0  0  0
   -4.6463   -0.8492   -0.1289 C   0  0  0  0  0  0  0  0  0  0  0  0
   -4.4212   -2.2855   -0.5548 C   0  0  0  0  0  0  0  0  0  0  0  0
    4.8413   -0.8719   -1.4686 H   0  0  0  0  0  0  0  0  0  0  0  0
    3.6627    0.0378   -2.4250 H   0  0  0  0  0  0  0  0  0  0  0  0
    5.3670    0.5060   -2.4540 H   0  0  0  0  0  0  0  0  0  0  0  0
    3.9446    2.0160   -1.0133 H   0  0  0  0  0  0  0  0  0  0  0  0
    5.2657    1.2281   -0.1006 H   0  0  0  0  0  0  0  0  0  0  0  0
    0.7796   -1.0721    2.9933 H   0  0  0  0  0  0  0  0  0  0  0  0
    2.0331   -1.7437    1.9134 H   0  0  0  0  0  0  0  0  0  0  0  0
    2.4414    0.6053    3.8354 H   0  0  0  0  0  0  0  0  0  0  0  0
    3.0025   -1.0520    4.1109 H   0  0  0  0  0  0  0  0  0  0  0  0
    3.6779   -0.0935    2.7830 H   0  0  0  0  0  0  0  0  0  0  0  0
   -0.0301   -2.6173   -1.8640 H   0  0  0  0  0  0  0  0  0  0  0  0
   -0.1567   -0.8232   -1.8718 H   0  0  0  0  0  0  0  0  0  0  0  0
   -1.6457    2.7802    0.1135 H   0  0  0  0  0  0  0  0  0  0  0  0
   -2.8723    2.3537    1.3379 H   0  0  0  0  0  0  0  0  0  0  0  0
   -1.1026    2.3990    3.1043 H   0  0  0  0  0  0  0  0  0  0  0  0
    0.1057    2.8134    1.8806 H   0  0  0  0  0  0  0  0  0  0  0  0
   -1.1890    3.9614    2.2647 H   0  0  0  0  0  0  0  0  0  0  0  0
   -5.4685   -0.7617    0.5825 H   0  0  0  0  0  0  0  0  0  0  0  0
   -4.8361   -0.2152   -1.0010 H   0  0  0  0  0  0  0  0  0  0  0  0
   -4.1180   -2.8897    0.2965 H   0  0  0  0  0  0  0  0  0  0  0  0
   -5.3405   -2.6829   -0.9726 H   0  0  0  0  0  0  0  0  0  0  0  0
   -3.6412   -2.3283   -1.3137 H   0  0  0  0  0  0  0  0  0  0  0  0
  1  2  1  0  0  0  0
  2  3  1  0  0  0  0
  3  4  2  0  0  0  0
  4  5  2  0  0  0  0
  4  6  2  0  0  0  0
  6  7  1  0  0  0  0
  7  8  1  0  0  0  0
  4  9  1  0  0  0  0
  9 10  1  0  0  0  0
 10 11  1  0  0  0  0
 11 12  1  0  0  0  0
 12 13  2  0  0  0  0
 12 14  2  0  0  0  0
 14 15  1  0  0  0  0
 15 16  1  0  0  0  0
 12 17  2  0  0  0  0
 17 18  1  0  0  0  0
 18 19  1  0  0  0  0
  1 20  1  0  0  0  0
  1 21  1  0  0  0  0
  1 22  1  0  0  0  0
  2 23  1  0  0  0  0
  2 24  1  0  0  0  0
  7 25  1  0  0  0  0
  7 26  1  0  0  0  0
  8 27  1  0  0  0  0
  8 28  1  0  0  0  0
  8 29  1  0  0  0  0
 10 30  1  0  0  0  0
 10 31  1  0  0  0  0
 15 32  1  0  0  0  0
 15 33  1  0  0  0  0
 16 34  1  0  0  0  0
 16 35  1  0  0  0  0
 16 36  1  0  0  0  0
 18 37  1  0  0  0  0
 18 38  1  0  0  0  0
 19 39  1  0  0  0  0
 19 40  1  0  0  0  0
 19 41  1  0  0  0  0
M  END
