 xtb: 6.7.1 (edcfbbe)
          04092514013D

 41 40  0     0  0            999 V2000
    3.9214   -1.4816   -2.5939 C   0  0  0  0  0  0  0  0  0  0  0  0
    4.1647   -1.7196   -1.1173 C   0  0  0  0  0  0  0  0  0  0  0  0
    2.9480   -1.6924   -0.3497 O   0  0  0  0  0  0  0  0  0  0  0  0
    2.1466   -0.3583   -0.0277 P   0  0  0  0  0  0  0  0  0  0  0  0
    3.2466    1.2415    0.2627 S   0  0  0  0  0  0  0  0  0  0  0  0
    1.2408   -0.8186    1.1879 O   0  0  0  0  0  0  0  0  0  0  0  0
    1.5763   -0.5416    2.5608 C   0  0  0  0  0  0  0  0  0  0  0  0
    2.6985   -1.4313    3.0539 C   0  0  0  0  0  0  0  0  0  0  0  0
    0.6814   -0.2633   -1.5490 S   0  0  0  0  0  0  0  0  0  0  0  0
    0.1359    1.4375   -1.2304 C   0  0  0  0  0  0  0  0  0  0  0  0
   -0.6417    1.6583    0.3907 S   0  0  0  0  0  0  0  0  0  0  0  0
   -2.3565    0.4582    0.0243 P   0  0  0  0  0  0  0  0  0  0  0  0
   -3.0742    0.5303   -1.8026 S   0  0  0  0  0  0  0  0  0  0  0  0
   -3.3209    0.8421    1.2220 O   0  0  0  0  0  0  0  0  0  0  0  0
   -3.6757    2.1726    1.6422 C   0  0  0  0  0  0  0  0  0  0  0  0
   -4.3698    2.9701    0.5567 C   0  0  0  0  0  0  0  0  0  0  0  0
   -1.9744   -0.9951    0.5227 O   0  0  0  0  0  0  0  0  0  0  0  0
   -2.0948   -2.1963   -0.2694 C   0  0  0  0  0  0  0  0  0  0  0  0
   -1.0717   -3.1978    0.2254 C   0  0  0  0  0  0  0  0  0  0  0  0
    4.8509   -1.6287   -3.1354 H   0  0  0  0  0  0  0  0  0  0  0  0
    3.1717   -2.1720   -2.9718 H   0  0  0  0  0  0  0  0  0  0  0  0
    3.5745   -0.4626   -2.7590 H   0  0  0  0  0  0  0  0  0  0  0  0
    4.8462   -0.9637   -0.7138 H   0  0  0  0  0  0  0  0  0  0  0  0
    4.5662   -2.7174   -0.9340 H   0  0  0  0  0  0  0  0  0  0  0  0
    1.8513    0.5151    2.6457 H   0  0  0  0  0  0  0  0  0  0  0  0
    0.6455   -0.7229    3.1003 H   0  0  0  0  0  0  0  0  0  0  0  0
    2.4481   -2.4770    2.8969 H   0  0  0  0  0  0  0  0  0  0  0  0
    3.6172   -1.2034    2.5148 H   0  0  0  0  0  0  0  0  0  0  0  0
    2.8575   -1.2527    4.1129 H   0  0  0  0  0  0  0  0  0  0  0  0
   -0.5820    1.6784   -2.0147 H   0  0  0  0  0  0  0  0  0  0  0  0
    0.9932    2.1095   -1.2526 H   0  0  0  0  0  0  0  0  0  0  0  0
   -4.3389    2.0003    2.4923 H   0  0  0  0  0  0  0  0  0  0  0  0
   -2.7685    2.6821    1.9793 H   0  0  0  0  0  0  0  0  0  0  0  0
   -5.2376    2.4306    0.1851 H   0  0  0  0  0  0  0  0  0  0  0  0
   -4.6887    3.9243    0.9643 H   0  0  0  0  0  0  0  0  0  0  0  0
   -3.6913    3.1486   -0.2758 H   0  0  0  0  0  0  0  0  0  0  0  0
   -3.1122   -2.5730   -0.1375 H   0  0  0  0  0  0  0  0  0  0  0  0
   -1.9418   -1.9505   -1.3254 H   0  0  0  0  0  0  0  0  0  0  0  0
   -1.2124   -3.3727    1.2882 H   0  0  0  0  0  0  0  0  0  0  0  0
   -1.2005   -4.1303   -0.3144 H   0  0  0  0  0  0  0  0  0  0  0  0
   -0.0637   -2.8246    0.0614 H   0  0  0  0  0  0  0  0  0  0  0  0
  1  2  1  0  0  0  0
  2  3  1  0  0  0  0
  3  4  2  0  0  0  0
  4  5  2  0  0  0  0
  4  6  2  0  0  0  0
  6  7  1  0  0  0  0
  7  8  1  0  0  0  0
  4  9  1  0  0  0  0
  9 10  1  0  0  0  0
 10 11  1  0  0  0  0
 11 12  1  0  0  0  0
 12 13  2  0  0  0  0
 12 14  2  0  0  0  0
 14 15  1  0  0  0  0
 15 16  1  0  0  0  0
 12 17  2  0  0  0  0
 17 18  1  0  0  0  0
 18 19  1  0  0  0  0
  1 20  1  0  0  0  0
  1 21  1  0  0  0  0
  1 22  1  0  0  0  0
  2 23  1  0  0  0  0
  2 24  1  0  0  0  0
  7 25  1  0  0  0  0
  7 26  1  0  0  0  0
  8 27  1  0  0  0  0
  8 28  1  0  0  0  0
  8 29  1  0  0  0  0
 10 30  1  0  0  0  0
 10 31  1  0  0  0  0
 15 32  1  0  0  0  0
 15 33  1  0  0  0  0
 16 34  1  0  0  0  0
 16 35  1  0  0  0  0
 16 36  1  0  0  0  0
 18 37  1  0  0  0  0
 18 38  1  0  0  0  0
 19 39  1  0  0  0  0
 19 40  1  0  0  0  0
 19 41  1  0  0  0  0
M  END
