 xtb: 6.7.1 (edcfbbe)
          04092505203D

 41 40  0     0  0            999 V2000
    2.5613   -0.9575   -2.8999 C   0  0  0  0  0  0  0  0  0  0  0  0
    3.1801    0.1163   -2.0262 C   0  0  0  0  0  0  0  0  0  0  0  0
    2.2156    0.6444   -1.0819 O   0  0  0  0  0  0  0  0  0  0  0  0
    2.0409    0.1923    0.4161 P   0  0  0  0  0  0  0  0  0  0  0  0
    0.8013    1.4171    1.3072 S   0  0  0  0  0  0  0  0  0  0  0  0
    3.5430    0.1951    0.9353 O   0  0  0  0  0  0  0  0  0  0  0  0
    4.0208   -0.5041    2.1010 C   0  0  0  0  0  0  0  0  0  0  0  0
    3.2231   -0.1832    3.3469 C   0  0  0  0  0  0  0  0  0  0  0  0
    1.5733   -1.8840    0.4552 S   0  0  0  0  0  0  0  0  0  0  0  0
   -0.0329   -1.8684   -0.3778 C   0  0  0  0  0  0  0  0  0  0  0  0
   -1.4046   -1.2438    0.6442 S   0  0  0  0  0  0  0  0  0  0  0  0
   -2.0302    0.4055   -0.5532 P   0  0  0  0  0  0  0  0  0  0  0  0
   -0.9422    0.8157   -2.1233 S   0  0  0  0  0  0  0  0  0  0  0  0
   -2.2173    1.6194    0.4262 O   0  0  0  0  0  0  0  0  0  0  0  0
   -2.9636    1.5283    1.6670 C   0  0  0  0  0  0  0  0  0  0  0  0
   -2.5425    2.6886    2.5426 C   0  0  0  0  0  0  0  0  0  0  0  0
   -3.5592    0.0773   -0.8900 O   0  0  0  0  0  0  0  0  0  0  0  0
   -3.9771   -0.6867   -2.0333 C   0  0  0  0  0  0  0  0  0  0  0  0
   -3.5229   -2.1310   -1.9679 C   0  0  0  0  0  0  0  0  0  0  0  0
    3.2432   -1.1844   -3.7132 H   0  0  0  0  0  0  0  0  0  0  0  0
    2.3774   -1.8653   -2.3307 H   0  0  0  0  0  0  0  0  0  0  0  0
    1.6226   -0.5954   -3.3146 H   0  0  0  0  0  0  0  0  0  0  0  0
    3.4640    0.9876   -2.6186 H   0  0  0  0  0  0  0  0  0  0  0  0
    4.0468   -0.2564   -1.4775 H   0  0  0  0  0  0  0  0  0  0  0  0
    3.9922   -1.5764    1.8889 H   0  0  0  0  0  0  0  0  0  0  0  0
    5.0558   -0.1695    2.1921 H   0  0  0  0  0  0  0  0  0  0  0  0
    2.1963   -0.5293    3.2352 H   0  0  0  0  0  0  0  0  0  0  0  0
    3.6734   -0.6787    4.2009 H   0  0  0  0  0  0  0  0  0  0  0  0
    3.2043    0.8905    3.5195 H   0  0  0  0  0  0  0  0  0  0  0  0
   -0.2415   -2.9096   -0.6102 H   0  0  0  0  0  0  0  0  0  0  0  0
    0.0280   -1.2538   -1.2808 H   0  0  0  0  0  0  0  0  0  0  0  0
   -4.0262    1.5656    1.4181 H   0  0  0  0  0  0  0  0  0  0  0  0
   -2.7324    0.5706    2.1428 H   0  0  0  0  0  0  0  0  0  0  0  0
   -2.7692    3.6300    2.0506 H   0  0  0  0  0  0  0  0  0  0  0  0
   -3.0713    2.6338    3.4883 H   0  0  0  0  0  0  0  0  0  0  0  0
   -1.4706    2.6396    2.7212 H   0  0  0  0  0  0  0  0  0  0  0  0
   -5.0649   -0.6054   -2.0117 H   0  0  0  0  0  0  0  0  0  0  0  0
   -3.5857   -0.2004   -2.9323 H   0  0  0  0  0  0  0  0  0  0  0  0
   -3.7983   -2.5718   -1.0132 H   0  0  0  0  0  0  0  0  0  0  0  0
   -3.9933   -2.6879   -2.7718 H   0  0  0  0  0  0  0  0  0  0  0  0
   -2.4423   -2.1851   -2.0883 H   0  0  0  0  0  0  0  0  0  0  0  0
  1  2  1  0  0  0  0
  2  3  1  0  0  0  0
  3  4  2  0  0  0  0
  4  5  2  0  0  0  0
  4  6  2  0  0  0  0
  6  7  1  0  0  0  0
  7  8  1  0  0  0  0
  4  9  1  0  0  0  0
  9 10  1  0  0  0  0
 10 11  1  0  0  0  0
 11 12  1  0  0  0  0
 12 13  2  0  0  0  0
 12 14  2  0  0  0  0
 14 15  1  0  0  0  0
 15 16  1  0  0  0  0
 12 17  2  0  0  0  0
 17 18  1  0  0  0  0
 18 19  1  0  0  0  0
  1 20  1  0  0  0  0
  1 21  1  0  0  0  0
  1 22  1  0  0  0  0
  2 23  1  0  0  0  0
  2 24  1  0  0  0  0
  7 25  1  0  0  0  0
  7 26  1  0  0  0  0
  8 27  1  0  0  0  0
  8 28  1  0  0  0  0
  8 29  1  0  0  0  0
 10 30  1  0  0  0  0
 10 31  1  0  0  0  0
 15 32  1  0  0  0  0
 15 33  1  0  0  0  0
 16 34  1  0  0  0  0
 16 35  1  0  0  0  0
 16 36  1  0  0  0  0
 18 37  1  0  0  0  0
 18 38  1  0  0  0  0
 19 39  1  0  0  0  0
 19 40  1  0  0  0  0
 19 41  1  0  0  0  0
M  END
