 xtb: 6.7.1 (edcfbbe)
          04092505213D

 41 40  0     0  0            999 V2000
    4.2973   -0.0753   -2.6988 C   0  0  0  0  0  0  0  0  0  0  0  0
    4.6123    0.7056   -1.4392 C   0  0  0  0  0  0  0  0  0  0  0  0
    4.0350    0.1009   -0.2693 O   0  0  0  0  0  0  0  0  0  0  0  0
    2.4657    0.0357   -0.0149 P   0  0  0  0  0  0  0  0  0  0  0  0
    1.5030    1.6727   -0.5236 S   0  0  0  0  0  0  0  0  0  0  0  0
    2.4246   -0.3647    1.5117 O   0  0  0  0  0  0  0  0  0  0  0  0
    2.3241    0.5837    2.5971 C   0  0  0  0  0  0  0  0  0  0  0  0
    1.5558   -0.0779    3.7230 C   0  0  0  0  0  0  0  0  0  0  0  0
    1.8564   -1.7940   -0.8660 S   0  0  0  0  0  0  0  0  0  0  0  0
    0.0935   -1.4234   -0.9847 C   0  0  0  0  0  0  0  0  0  0  0  0
   -0.6416   -1.0700    0.6511 S   0  0  0  0  0  0  0  0  0  0  0  0
   -2.3783   -0.1329   -0.0889 P   0  0  0  0  0  0  0  0  0  0  0  0
   -2.2189    1.0137   -1.6772 S   0  0  0  0  0  0  0  0  0  0  0  0
   -3.0435    0.5468    1.1830 O   0  0  0  0  0  0  0  0  0  0  0  0
   -2.8130    1.9214    1.5374 C   0  0  0  0  0  0  0  0  0  0  0  0
   -1.4119    2.1418    2.0682 C   0  0  0  0  0  0  0  0  0  0  0  0
   -3.2588   -1.4349   -0.2907 O   0  0  0  0  0  0  0  0  0  0  0  0
   -4.4515   -1.4425   -1.1026 C   0  0  0  0  0  0  0  0  0  0  0  0
   -5.5714   -0.6449   -0.4684 C   0  0  0  0  0  0  0  0  0  0  0  0
    3.2323   -0.0123   -2.9198 H   0  0  0  0  0  0  0  0  0  0  0  0
    4.8538    0.3440   -3.5309 H   0  0  0  0  0  0  0  0  0  0  0  0
    4.5663   -1.1209   -2.5718 H   0  0  0  0  0  0  0  0  0  0  0  0
    4.2384    1.7316   -1.5178 H   0  0  0  0  0  0  0  0  0  0  0  0
    5.6823    0.7153   -1.2272 H   0  0  0  0  0  0  0  0  0  0  0  0
    3.3391    0.8466    2.9034 H   0  0  0  0  0  0  0  0  0  0  0  0
    1.8133    1.4818    2.2332 H   0  0  0  0  0  0  0  0  0  0  0  0
    0.5716   -0.3790    3.3726 H   0  0  0  0  0  0  0  0  0  0  0  0
    2.0863   -0.9622    4.0631 H   0  0  0  0  0  0  0  0  0  0  0  0
    1.4528    0.6221    4.5456 H   0  0  0  0  0  0  0  0  0  0  0  0
   -0.3770   -2.3051   -1.4137 H   0  0  0  0  0  0  0  0  0  0  0  0
   -0.0557   -0.5452   -1.6188 H   0  0  0  0  0  0  0  0  0  0  0  0
   -2.9898    2.5438    0.6539 H   0  0  0  0  0  0  0  0  0  0  0  0
   -3.5686    2.1270    2.2969 H   0  0  0  0  0  0  0  0  0  0  0  0
   -1.2045    1.4535    2.8834 H   0  0  0  0  0  0  0  0  0  0  0  0
   -0.6837    1.9815    1.2730 H   0  0  0  0  0  0  0  0  0  0  0  0
   -1.3163    3.1629    2.4232 H   0  0  0  0  0  0  0  0  0  0  0  0
   -4.2001   -1.0391   -2.0888 H   0  0  0  0  0  0  0  0  0  0  0  0
   -4.7033   -2.5006   -1.1845 H   0  0  0  0  0  0  0  0  0  0  0  0
   -5.7411   -0.9819    0.5508 H   0  0  0  0  0  0  0  0  0  0  0  0
   -5.3099    0.4122   -0.4510 H   0  0  0  0  0  0  0  0  0  0  0  0
   -6.4793   -0.7741   -1.0493 H   0  0  0  0  0  0  0  0  0  0  0  0
  1  2  1  0  0  0  0
  2  3  1  0  0  0  0
  3  4  2  0  0  0  0
  4  5  2  0  0  0  0
  4  6  2  0  0  0  0
  6  7  1  0  0  0  0
  7  8  1  0  0  0  0
  4  9  1  0  0  0  0
  9 10  1  0  0  0  0
 10 11  1  0  0  0  0
 11 12  1  0  0  0  0
 12 13  2  0  0  0  0
 12 14  2  0  0  0  0
 14 15  1  0  0  0  0
 15 16  1  0  0  0  0
 12 17  2  0  0  0  0
 17 18  1  0  0  0  0
 18 19  1  0  0  0  0
  1 20  1  0  0  0  0
  1 21  1  0  0  0  0
  1 22  1  0  0  0  0
  2 23  1  0  0  0  0
  2 24  1  0  0  0  0
  7 25  1  0  0  0  0
  7 26  1  0  0  0  0
  8 27  1  0  0  0  0
  8 28  1  0  0  0  0
  8 29  1  0  0  0  0
 10 30  1  0  0  0  0
 10 31  1  0  0  0  0
 15 32  1  0  0  0  0
 15 33  1  0  0  0  0
 16 34  1  0  0  0  0
 16 35  1  0  0  0  0
 16 36  1  0  0  0  0
 18 37  1  0  0  0  0
 18 38  1  0  0  0  0
 19 39  1  0  0  0  0
 19 40  1  0  0  0  0
 19 41  1  0  0  0  0
M  END
