 xtb: 6.7.1 (edcfbbe)
          04092507313D

 38 37  0     0  0            999 V2000
    4.0274   -2.6179    0.7125 C   0  0  0  0  0  0  0  0  0  0  0  0
    2.5130   -2.5934    0.5853 C   0  0  0  0  0  0  0  0  0  0  0  0
    2.1095   -1.8879   -0.6031 O   0  0  0  0  0  0  0  0  0  0  0  0
    2.0088   -0.5774   -0.5611 C   0  0  0  0  0  0  0  0  0  0  0  0
    2.1980    0.1108    0.4201 O   0  0  0  0  0  0  0  0  0  0  0  0
    1.6219    0.0033   -1.9096 C   0  0  0  0  0  0  0  0  0  0  0  0
    0.3188    0.7994   -1.7958 C   0  0  0  0  0  0  0  0  0  0  0  0
    0.1840    1.4143   -2.6890 H   0  0  0  0  0  0  0  0  0  0  0  0
    0.3192    1.6937   -0.5712 C   0  0  0  0  0  0  0  0  0  0  0  0
   -0.4877    1.5507    0.3324 O   0  0  0  0  0  0  0  0  0  0  0  0
    1.2144    2.6280   -0.6492 O   0  0  0  0  0  0  0  0  0  0  0  0
    1.4204    3.5258    0.4659 C   0  0  0  0  0  0  0  0  0  0  0  0
    2.8470    3.3743    0.9621 C   0  0  0  0  0  0  0  0  0  0  0  0
   -1.1471   -0.2828   -1.7398 S   0  0  0  0  0  0  0  0  0  0  0  0
   -1.7105   -0.5451    0.3029 P   0  0  0  0  0  0  0  0  0  0  0  0
   -0.5395   -0.9932    1.8080 S   0  0  0  0  0  0  0  0  0  0  0  0
   -2.9302    0.4602    0.5866 O   0  0  0  0  0  0  0  0  0  0  0  0
   -2.9448    1.5193    1.5408 C   0  0  0  0  0  0  0  0  0  0  0  0
   -2.5528   -1.8877    0.0563 O   0  0  0  0  0  0  0  0  0  0  0  0
   -3.6536   -2.0079   -0.8592 C   0  0  0  0  0  0  0  0  0  0  0  0
    4.4703   -3.0490   -0.1812 H   0  0  0  0  0  0  0  0  0  0  0  0
    4.4073   -1.6082    0.8498 H   0  0  0  0  0  0  0  0  0  0  0  0
    4.3009   -3.2164    1.5749 H   0  0  0  0  0  0  0  0  0  0  0  0
    2.0487   -2.1123    1.4519 H   0  0  0  0  0  0  0  0  0  0  0  0
    2.1039   -3.5954    0.4558 H   0  0  0  0  0  0  0  0  0  0  0  0
    1.5072   -0.7989   -2.6366 H   0  0  0  0  0  0  0  0  0  0  0  0
    2.4184    0.6833   -2.2179 H   0  0  0  0  0  0  0  0  0  0  0  0
    1.2354    4.5285    0.0752 H   0  0  0  0  0  0  0  0  0  0  0  0
    0.6994    3.2843    1.2502 H   0  0  0  0  0  0  0  0  0  0  0  0
    3.0174    2.3457    1.2715 H   0  0  0  0  0  0  0  0  0  0  0  0
    3.5481    3.6275    0.1728 H   0  0  0  0  0  0  0  0  0  0  0  0
    3.0033    4.0331    1.8096 H   0  0  0  0  0  0  0  0  0  0  0  0
   -3.9392    1.5120    1.9829 H   0  0  0  0  0  0  0  0  0  0  0  0
   -2.7521    2.4638    1.0349 H   0  0  0  0  0  0  0  0  0  0  0  0
   -2.1870    1.3493    2.3067 H   0  0  0  0  0  0  0  0  0  0  0  0
   -4.3461   -1.1786   -0.7273 H   0  0  0  0  0  0  0  0  0  0  0  0
   -4.1311   -2.9510   -0.6046 H   0  0  0  0  0  0  0  0  0  0  0  0
   -3.2827   -2.0303   -1.8836 H   0  0  0  0  0  0  0  0  0  0  0  0
  1  2  1  0  0  0  0
  2  3  1  0  0  0  0
  3  4  4  0  0  0  0
  4  5  2  0  0  0  0
  4  6  1  0  0  0  0
  6  7  1  0  0  0  0
  7  8  1  0  0  0  0
  7  9  1  0  0  0  0
  9 10  2  0  0  0  0
  9 11  4  0  0  0  0
 11 12  1  0  0  0  0
 12 13  1  0  0  0  0
  7 14  1  0  0  0  0
 14 15  1  0  0  0  0
 15 16  2  0  0  0  0
 15 17  1  0  0  0  0
 17 18  1  0  0  0  0
 15 19  1  0  0  0  0
 19 20  1  0  0  0  0
  1 21  1  0  0  0  0
  1 22  1  0  0  0  0
  1 23  1  0  0  0  0
  2 24  1  0  0  0  0
  2 25  1  0  0  0  0
  6 26  1  0  0  0  0
  6 27  1  0  0  0  0
 12 28  1  0  0  0  0
 12 29  1  0  0  0  0
 13 30  1  0  0  0  0
 13 31  1  0  0  0  0
 13 32  1  0  0  0  0
 18 33  1  0  0  0  0
 18 34  1  0  0  0  0
 18 35  1  0  0  0  0
 20 36  1  0  0  0  0
 20 37  1  0  0  0  0
 20 38  1  0  0  0  0
M  END
