 xtb: 6.7.1 (edcfbbe)
          04092505203D

 41 40  0     0  0            999 V2000
    4.3781    0.3010   -2.3300 C   0  0  0  0  0  0  0  0  0  0  0  0
    4.4124    0.8861   -0.9333 C   0  0  0  0  0  0  0  0  0  0  0  0
    3.7294    0.0490    0.0156 O   0  0  0  0  0  0  0  0  0  0  0  0
    2.1487   -0.1235    0.0175 P   0  0  0  0  0  0  0  0  0  0  0  0
    1.1827    1.5417   -0.3921 S   0  0  0  0  0  0  0  0  0  0  0  0
    1.9160   -0.8116    1.4250 O   0  0  0  0  0  0  0  0  0  0  0  0
    2.3592   -0.2690    2.6879 C   0  0  0  0  0  0  0  0  0  0  0  0
    1.3897    0.7660    3.2214 C   0  0  0  0  0  0  0  0  0  0  0  0
    1.7704   -1.7810   -1.2239 S   0  0  0  0  0  0  0  0  0  0  0  0
   -0.0173   -1.5920   -1.4328 C   0  0  0  0  0  0  0  0  0  0  0  0
   -0.9315   -1.7037    0.1409 S   0  0  0  0  0  0  0  0  0  0  0  0
   -2.0584    0.0811    0.0497 P   0  0  0  0  0  0  0  0  0  0  0  0
   -2.1431    0.9601   -1.7076 S   0  0  0  0  0  0  0  0  0  0  0  0
   -1.4543    0.8274    1.3087 O   0  0  0  0  0  0  0  0  0  0  0  0
   -2.0919    1.9367    1.9789 C   0  0  0  0  0  0  0  0  0  0  0  0
   -2.1521    3.1758    1.1093 C   0  0  0  0  0  0  0  0  0  0  0  0
   -3.4966   -0.3039    0.6199 O   0  0  0  0  0  0  0  0  0  0  0  0
   -4.5702   -0.7429   -0.2275 C   0  0  0  0  0  0  0  0  0  0  0  0
   -4.3078   -2.1146   -0.8146 C   0  0  0  0  0  0  0  0  0  0  0  0
    4.7331   -0.7263   -2.3175 H   0  0  0  0  0  0  0  0  0  0  0  0
    3.3589    0.3141   -2.7139 H   0  0  0  0  0  0  0  0  0  0  0  0
    5.0081    0.8950   -2.9843 H   0  0  0  0  0  0  0  0  0  0  0  0
    3.9466    1.8770   -0.9186 H   0  0  0  0  0  0  0  0  0  0  0  0
    5.4300    0.9462   -0.5451 H   0  0  0  0  0  0  0  0  0  0  0  0
    2.4055   -1.1433    3.3396 H   0  0  0  0  0  0  0  0  0  0  0  0
    3.3597    0.1506    2.5595 H   0  0  0  0  0  0  0  0  0  0  0  0
    0.3937    0.3353    3.2912 H   0  0  0  0  0  0  0  0  0  0  0  0
    1.7145    1.0921    4.2045 H   0  0  0  0  0  0  0  0  0  0  0  0
    1.3495    1.6249    2.5539 H   0  0  0  0  0  0  0  0  0  0  0  0
   -0.3220   -2.4161   -2.0730 H   0  0  0  0  0  0  0  0  0  0  0  0
   -0.2461   -0.6280   -1.8978 H   0  0  0  0  0  0  0  0  0  0  0  0
   -3.0908    1.6237    2.2921 H   0  0  0  0  0  0  0  0  0  0  0  0
   -1.4608    2.1010    2.8542 H   0  0  0  0  0  0  0  0  0  0  0  0
   -2.8279    3.0208    0.2699 H   0  0  0  0  0  0  0  0  0  0  0  0
   -2.5042    4.0158    1.6992 H   0  0  0  0  0  0  0  0  0  0  0  0
   -1.1633    3.4005    0.7131 H   0  0  0  0  0  0  0  0  0  0  0  0
   -5.4400   -0.7447    0.4309 H   0  0  0  0  0  0  0  0  0  0  0  0
   -4.7048   -0.0047   -1.0247 H   0  0  0  0  0  0  0  0  0  0  0  0
   -3.4785   -2.0617   -1.5186 H   0  0  0  0  0  0  0  0  0  0  0  0
   -4.0568   -2.8213   -0.0278 H   0  0  0  0  0  0  0  0  0  0  0  0
   -5.1941   -2.4557   -1.3397 H   0  0  0  0  0  0  0  0  0  0  0  0
  1  2  1  0  0  0  0
  2  3  1  0  0  0  0
  3  4  2  0  0  0  0
  4  5  2  0  0  0  0
  4  6  2  0  0  0  0
  6  7  1  0  0  0  0
  7  8  1  0  0  0  0
  4  9  1  0  0  0  0
  9 10  1  0  0  0  0
 10 11  1  0  0  0  0
 11 12  1  0  0  0  0
 12 13  2  0  0  0  0
 12 14  2  0  0  0  0
 14 15  1  0  0  0  0
 15 16  1  0  0  0  0
 12 17  2  0  0  0  0
 17 18  1  0  0  0  0
 18 19  1  0  0  0  0
  1 20  1  0  0  0  0
  1 21  1  0  0  0  0
  1 22  1  0  0  0  0
  2 23  1  0  0  0  0
  2 24  1  0  0  0  0
  7 25  1  0  0  0  0
  7 26  1  0  0  0  0
  8 27  1  0  0  0  0
  8 28  1  0  0  0  0
  8 29  1  0  0  0  0
 10 30  1  0  0  0  0
 10 31  1  0  0  0  0
 15 32  1  0  0  0  0
 15 33  1  0  0  0  0
 16 34  1  0  0  0  0
 16 35  1  0  0  0  0
 16 36  1  0  0  0  0
 18 37  1  0  0  0  0
 18 38  1  0  0  0  0
 19 39  1  0  0  0  0
 19 40  1  0  0  0  0
 19 41  1  0  0  0  0
M  END
