 xtb: 6.7.1 (edcfbbe)
          04092505213D

 41 40  0     0  0            999 V2000
    5.2009   -1.2483   -0.1365 C   0  0  0  0  0  0  0  0  0  0  0  0
    3.8380   -1.6377    0.3975 C   0  0  0  0  0  0  0  0  0  0  0  0
    2.8066   -1.3960   -0.5943 O   0  0  0  0  0  0  0  0  0  0  0  0
    1.9448   -0.0775   -0.6741 P   0  0  0  0  0  0  0  0  0  0  0  0
    0.8556   -0.0523   -2.2974 S   0  0  0  0  0  0  0  0  0  0  0  0
    3.0278    1.0827   -0.5870 O   0  0  0  0  0  0  0  0  0  0  0  0
    2.7468    2.4463   -0.9441 C   0  0  0  0  0  0  0  0  0  0  0  0
    1.9578    3.1615    0.1337 C   0  0  0  0  0  0  0  0  0  0  0  0
    1.0281    0.0274    1.2521 S   0  0  0  0  0  0  0  0  0  0  0  0
    0.1796   -1.5756    1.2679 C   0  0  0  0  0  0  0  0  0  0  0  0
   -1.0856   -1.7896   -0.0207 S   0  0  0  0  0  0  0  0  0  0  0  0
   -2.2529   -0.0464    0.3229 P   0  0  0  0  0  0  0  0  0  0  0  0
   -1.6380    1.7501   -0.1821 S   0  0  0  0  0  0  0  0  0  0  0  0
   -2.6058   -0.1942    1.8572 O   0  0  0  0  0  0  0  0  0  0  0  0
   -2.5714    0.8732    2.8281 C   0  0  0  0  0  0  0  0  0  0  0  0
   -1.5138    0.5954    3.8781 C   0  0  0  0  0  0  0  0  0  0  0  0
   -3.6412   -0.4715   -0.3220 O   0  0  0  0  0  0  0  0  0  0  0  0
   -3.8143   -1.0420   -1.6297 C   0  0  0  0  0  0  0  0  0  0  0  0
   -3.1723   -0.2147   -2.7249 C   0  0  0  0  0  0  0  0  0  0  0  0
    5.9578   -1.5206    0.5926 H   0  0  0  0  0  0  0  0  0  0  0  0
    5.3974   -1.7687   -1.0699 H   0  0  0  0  0  0  0  0  0  0  0  0
    5.2446   -0.1778   -0.3168 H   0  0  0  0  0  0  0  0  0  0  0  0
    3.5974   -1.0801    1.3067 H   0  0  0  0  0  0  0  0  0  0  0  0
    3.7825   -2.7111    0.5891 H   0  0  0  0  0  0  0  0  0  0  0  0
    3.7344    2.8904   -1.0793 H   0  0  0  0  0  0  0  0  0  0  0  0
    2.2028    2.4547   -1.8943 H   0  0  0  0  0  0  0  0  0  0  0  0
    1.9063    4.2191   -0.1033 H   0  0  0  0  0  0  0  0  0  0  0  0
    0.9417    2.7719    0.1838 H   0  0  0  0  0  0  0  0  0  0  0  0
    2.4355    3.0306    1.1013 H   0  0  0  0  0  0  0  0  0  0  0  0
   -0.2871   -1.6596    2.2472 H   0  0  0  0  0  0  0  0  0  0  0  0
    0.8943   -2.3795    1.1036 H   0  0  0  0  0  0  0  0  0  0  0  0
   -2.3751    1.8179    2.3099 H   0  0  0  0  0  0  0  0  0  0  0  0
   -3.5708    0.8968    3.2659 H   0  0  0  0  0  0  0  0  0  0  0  0
   -1.6829   -0.3771    4.3320 H   0  0  0  0  0  0  0  0  0  0  0  0
   -0.5210    0.6198    3.4322 H   0  0  0  0  0  0  0  0  0  0  0  0
   -1.5730    1.3611    4.6446 H   0  0  0  0  0  0  0  0  0  0  0  0
   -3.4014   -2.0554   -1.6199 H   0  0  0  0  0  0  0  0  0  0  0  0
   -4.8985   -1.0862   -1.7485 H   0  0  0  0  0  0  0  0  0  0  0  0
   -3.5311    0.8114   -2.6852 H   0  0  0  0  0  0  0  0  0  0  0  0
   -2.0871   -0.2042   -2.6120 H   0  0  0  0  0  0  0  0  0  0  0  0
   -3.4148   -0.6433   -3.6919 H   0  0  0  0  0  0  0  0  0  0  0  0
  1  2  1  0  0  0  0
  2  3  1  0  0  0  0
  3  4  2  0  0  0  0
  4  5  2  0  0  0  0
  4  6  2  0  0  0  0
  6  7  1  0  0  0  0
  7  8  1  0  0  0  0
  4  9  1  0  0  0  0
  9 10  1  0  0  0  0
 10 11  1  0  0  0  0
 11 12  1  0  0  0  0
 12 13  2  0  0  0  0
 12 14  2  0  0  0  0
 14 15  1  0  0  0  0
 15 16  1  0  0  0  0
 12 17  2  0  0  0  0
 17 18  1  0  0  0  0
 18 19  1  0  0  0  0
  1 20  1  0  0  0  0
  1 21  1  0  0  0  0
  1 22  1  0  0  0  0
  2 23  1  0  0  0  0
  2 24  1  0  0  0  0
  7 25  1  0  0  0  0
  7 26  1  0  0  0  0
  8 27  1  0  0  0  0
  8 28  1  0  0  0  0
  8 29  1  0  0  0  0
 10 30  1  0  0  0  0
 10 31  1  0  0  0  0
 15 32  1  0  0  0  0
 15 33  1  0  0  0  0
 16 34  1  0  0  0  0
 16 35  1  0  0  0  0
 16 36  1  0  0  0  0
 18 37  1  0  0  0  0
 18 38  1  0  0  0  0
 19 39  1  0  0  0  0
 19 40  1  0  0  0  0
 19 41  1  0  0  0  0
M  END
