 xtb: 6.7.1 (edcfbbe)
          04092505203D

 41 40  0     0  0            999 V2000
    1.4732   -0.2413   -3.0894 C   0  0  0  0  0  0  0  0  0  0  0  0
    2.4492    0.4717   -2.1747 C   0  0  0  0  0  0  0  0  0  0  0  0
    2.8676   -0.4001   -1.1093 O   0  0  0  0  0  0  0  0  0  0  0  0
    2.3853   -0.2899    0.3876 P   0  0  0  0  0  0  0  0  0  0  0  0
    2.3798    1.4885    1.2223 S   0  0  0  0  0  0  0  0  0  0  0  0
    3.4719   -1.2907    0.9545 O   0  0  0  0  0  0  0  0  0  0  0  0
    3.5404   -1.5698    2.3676 C   0  0  0  0  0  0  0  0  0  0  0  0
    4.9031   -2.1654    2.6580 C   0  0  0  0  0  0  0  0  0  0  0  0
    0.5670   -1.3852    0.5460 S   0  0  0  0  0  0  0  0  0  0  0  0
   -0.3729   -0.3015    1.6855 C   0  0  0  0  0  0  0  0  0  0  0  0
   -2.1317   -0.2981    1.3035 S   0  0  0  0  0  0  0  0  0  0  0  0
   -2.0054    0.5433   -0.6499 P   0  0  0  0  0  0  0  0  0  0  0  0
   -0.6299    1.9117   -0.9280 S   0  0  0  0  0  0  0  0  0  0  0  0
   -3.4863    1.0223   -0.9675 O   0  0  0  0  0  0  0  0  0  0  0  0
   -3.9736    2.3292   -0.6218 C   0  0  0  0  0  0  0  0  0  0  0  0
   -4.0599    2.5354    0.8769 C   0  0  0  0  0  0  0  0  0  0  0  0
   -1.8113   -0.6648   -1.6444 O   0  0  0  0  0  0  0  0  0  0  0  0
   -2.3812   -1.9915   -1.5201 C   0  0  0  0  0  0  0  0  0  0  0  0
   -3.8871   -1.9740   -1.3787 C   0  0  0  0  0  0  0  0  0  0  0  0
    1.2726    0.3876   -3.9509 H   0  0  0  0  0  0  0  0  0  0  0  0
    1.8961   -1.1865   -3.4171 H   0  0  0  0  0  0  0  0  0  0  0  0
    0.5344   -0.4317   -2.5730 H   0  0  0  0  0  0  0  0  0  0  0  0
    2.0087    1.3830   -1.7557 H   0  0  0  0  0  0  0  0  0  0  0  0
    3.3689    0.7287   -2.7041 H   0  0  0  0  0  0  0  0  0  0  0  0
    3.3872   -0.6350    2.9189 H   0  0  0  0  0  0  0  0  0  0  0  0
    2.7392   -2.2723    2.6163 H   0  0  0  0  0  0  0  0  0  0  0  0
    5.6823   -1.4537    2.4005 H   0  0  0  0  0  0  0  0  0  0  0  0
    4.9700   -2.4059    3.7139 H   0  0  0  0  0  0  0  0  0  0  0  0
    5.0440   -3.0677    2.0705 H   0  0  0  0  0  0  0  0  0  0  0  0
    0.0351    0.7103    1.6033 H   0  0  0  0  0  0  0  0  0  0  0  0
   -0.2837   -0.6821    2.6997 H   0  0  0  0  0  0  0  0  0  0  0  0
   -3.3142    3.0763   -1.0750 H   0  0  0  0  0  0  0  0  0  0  0  0
   -4.9576    2.3710   -1.0911 H   0  0  0  0  0  0  0  0  0  0  0  0
   -4.5582    3.4778    1.0803 H   0  0  0  0  0  0  0  0  0  0  0  0
   -4.6160    1.7246    1.3405 H   0  0  0  0  0  0  0  0  0  0  0  0
   -3.0601    2.5684    1.3076 H   0  0  0  0  0  0  0  0  0  0  0  0
   -2.0678   -2.4816   -2.4430 H   0  0  0  0  0  0  0  0  0  0  0  0
   -1.9077   -2.4826   -0.6647 H   0  0  0  0  0  0  0  0  0  0  0  0
   -4.2540   -2.9956   -1.3934 H   0  0  0  0  0  0  0  0  0  0  0  0
   -4.1733   -1.5081   -0.4381 H   0  0  0  0  0  0  0  0  0  0  0  0
   -4.3352   -1.4179   -2.1979 H   0  0  0  0  0  0  0  0  0  0  0  0
  1  2  1  0  0  0  0
  2  3  1  0  0  0  0
  3  4  2  0  0  0  0
  4  5  2  0  0  0  0
  4  6  2  0  0  0  0
  6  7  1  0  0  0  0
  7  8  1  0  0  0  0
  4  9  1  0  0  0  0
  9 10  1  0  0  0  0
 10 11  1  0  0  0  0
 11 12  1  0  0  0  0
 12 13  2  0  0  0  0
 12 14  2  0  0  0  0
 14 15  1  0  0  0  0
 15 16  1  0  0  0  0
 12 17  2  0  0  0  0
 17 18  1  0  0  0  0
 18 19  1  0  0  0  0
  1 20  1  0  0  0  0
  1 21  1  0  0  0  0
  1 22  1  0  0  0  0
  2 23  1  0  0  0  0
  2 24  1  0  0  0  0
  7 25  1  0  0  0  0
  7 26  1  0  0  0  0
  8 27  1  0  0  0  0
  8 28  1  0  0  0  0
  8 29  1  0  0  0  0
 10 30  1  0  0  0  0
 10 31  1  0  0  0  0
 15 32  1  0  0  0  0
 15 33  1  0  0  0  0
 16 34  1  0  0  0  0
 16 35  1  0  0  0  0
 16 36  1  0  0  0  0
 18 37  1  0  0  0  0
 18 38  1  0  0  0  0
 19 39  1  0  0  0  0
 19 40  1  0  0  0  0
 19 41  1  0  0  0  0
M  END
