 xtb: 6.7.1 (edcfbbe)
          04092514003D

 41 40  0     0  0            999 V2000
    4.3609   -0.8327   -2.6318 C   0  0  0  0  0  0  0  0  0  0  0  0
    4.5345   -1.3860   -1.2321 C   0  0  0  0  0  0  0  0  0  0  0  0
    3.2754   -1.6072   -0.5725 O   0  0  0  0  0  0  0  0  0  0  0  0
    2.3543   -0.4326   -0.0194 P   0  0  0  0  0  0  0  0  0  0  0  0
    3.3471    1.1087    0.6834 S   0  0  0  0  0  0  0  0  0  0  0  0
    1.4379   -1.2227    1.0055 O   0  0  0  0  0  0  0  0  0  0  0  0
    1.8981   -1.5400    2.3427 C   0  0  0  0  0  0  0  0  0  0  0  0
    1.2943   -0.5845    3.3525 C   0  0  0  0  0  0  0  0  0  0  0  0
    0.9410   -0.0760   -1.5444 S   0  0  0  0  0  0  0  0  0  0  0  0
    0.2989    1.4934   -0.8900 C   0  0  0  0  0  0  0  0  0  0  0  0
   -0.7140    1.3013    0.5911 S   0  0  0  0  0  0  0  0  0  0  0  0
   -2.3844    0.3604   -0.3590 P   0  0  0  0  0  0  0  0  0  0  0  0
   -2.7818    0.9660   -2.1742 S   0  0  0  0  0  0  0  0  0  0  0  0
   -3.5212    0.4623    0.7466 O   0  0  0  0  0  0  0  0  0  0  0  0
   -3.9210    1.6545    1.4495 C   0  0  0  0  0  0  0  0  0  0  0  0
   -4.4024    2.7539    0.5261 C   0  0  0  0  0  0  0  0  0  0  0  0
   -2.0887   -1.1890   -0.3664 O   0  0  0  0  0  0  0  0  0  0  0  0
   -1.8182   -1.9444    0.8383 C   0  0  0  0  0  0  0  0  0  0  0  0
   -3.0185   -2.7872    1.2165 C   0  0  0  0  0  0  0  0  0  0  0  0
    3.6915   -1.4646   -3.2099 H   0  0  0  0  0  0  0  0  0  0  0  0
    3.9439    0.1726   -2.5890 H   0  0  0  0  0  0  0  0  0  0  0  0
    5.3291   -0.7921   -3.1214 H   0  0  0  0  0  0  0  0  0  0  0  0
    5.1319   -0.7026   -0.6198 H   0  0  0  0  0  0  0  0  0  0  0  0
    4.9982   -2.3736   -1.2468 H   0  0  0  0  0  0  0  0  0  0  0  0
    1.5715   -2.5666    2.5157 H   0  0  0  0  0  0  0  0  0  0  0  0
    2.9905   -1.4951    2.3686 H   0  0  0  0  0  0  0  0  0  0  0  0
    0.2101   -0.6077    3.2927 H   0  0  0  0  0  0  0  0  0  0  0  0
    1.6056   -0.8771    4.3503 H   0  0  0  0  0  0  0  0  0  0  0  0
    1.6307    0.4315    3.1574 H   0  0  0  0  0  0  0  0  0  0  0  0
   -0.3061    1.9281   -1.6866 H   0  0  0  0  0  0  0  0  0  0  0  0
    1.1308    2.1427   -0.6171 H   0  0  0  0  0  0  0  0  0  0  0  0
   -4.7241    1.3070    2.1024 H   0  0  0  0  0  0  0  0  0  0  0  0
   -3.0746    1.9974    2.0508 H   0  0  0  0  0  0  0  0  0  0  0  0
   -3.5883    3.0995   -0.1087 H   0  0  0  0  0  0  0  0  0  0  0  0
   -5.2047    2.3918   -0.1122 H   0  0  0  0  0  0  0  0  0  0  0  0
   -4.7653    3.5859    1.1215 H   0  0  0  0  0  0  0  0  0  0  0  0
   -0.9511   -2.5621    0.5955 H   0  0  0  0  0  0  0  0  0  0  0  0
   -1.5551   -1.2491    1.6405 H   0  0  0  0  0  0  0  0  0  0  0  0
   -3.2779   -3.4536    0.3987 H   0  0  0  0  0  0  0  0  0  0  0  0
   -2.7767   -3.3751    2.0966 H   0  0  0  0  0  0  0  0  0  0  0  0
   -3.8719   -2.1494    1.4318 H   0  0  0  0  0  0  0  0  0  0  0  0
  1  2  1  0  0  0  0
  2  3  1  0  0  0  0
  3  4  2  0  0  0  0
  4  5  2  0  0  0  0
  4  6  2  0  0  0  0
  6  7  1  0  0  0  0
  7  8  1  0  0  0  0
  4  9  1  0  0  0  0
  9 10  1  0  0  0  0
 10 11  1  0  0  0  0
 11 12  1  0  0  0  0
 12 13  2  0  0  0  0
 12 14  2  0  0  0  0
 14 15  1  0  0  0  0
 15 16  1  0  0  0  0
 12 17  2  0  0  0  0
 17 18  1  0  0  0  0
 18 19  1  0  0  0  0
  1 20  1  0  0  0  0
  1 21  1  0  0  0  0
  1 22  1  0  0  0  0
  2 23  1  0  0  0  0
  2 24  1  0  0  0  0
  7 25  1  0  0  0  0
  7 26  1  0  0  0  0
  8 27  1  0  0  0  0
  8 28  1  0  0  0  0
  8 29  1  0  0  0  0
 10 30  1  0  0  0  0
 10 31  1  0  0  0  0
 15 32  1  0  0  0  0
 15 33  1  0  0  0  0
 16 34  1  0  0  0  0
 16 35  1  0  0  0  0
 16 36  1  0  0  0  0
 18 37  1  0  0  0  0
 18 38  1  0  0  0  0
 19 39  1  0  0  0  0
 19 40  1  0  0  0  0
 19 41  1  0  0  0  0
M  END
