41
 xtb: 6.7.1 (edcfbbe)
C            3.42181605445975       -0.47812854236867       -2.76713596389915
C            2.16055012648906        0.17015283565332       -2.24970076328093
O            1.60197248179044       -0.55914493392011       -1.10154260575602
P            2.30611860795430       -0.51233990128820        0.34091356158946
S            3.14513538544084        1.16955445368904        0.85312610936774
O            3.24700794352169       -1.81887338081306        0.27596268304226
C            4.46932357676075       -1.96796514543042        1.07762605182818
C            4.16777041703695       -2.37175859441573        2.49909403309089
S            0.76286811539915       -1.22599258494407        1.60000359274569
C           -0.19169394358677        0.32539531635715        1.92906601164854
S           -1.98938134620719        0.15955670469554        1.63269636904406
P           -2.27510183280016        0.97889622768744       -0.32051137183132
S           -0.85145382101505        2.14832046908123       -0.93615621420868
O           -3.76031883673666        1.57634059858956       -0.18280503031080
C           -3.96180785214957        2.87426164250476        0.47831910154767
C           -5.44396221283726        3.03863662036113        0.68874766124414
O           -2.68716972988672       -0.25338896151460       -1.26678188584629
C           -1.65422652784196       -1.20581522849178       -1.69082584528239
C           -2.35381096296359       -2.34663386486403       -2.38194550551938
H            3.73092620005740        0.04041423003243       -3.68063316785539
H            4.23980847558477       -0.40710491250567       -2.04356839722683
H            3.25034326125647       -1.53099032722907       -3.00890105815046
H            1.35682966969542        0.13658771315224       -2.98803404786831
H            2.32482333749522        1.20923971514768       -1.94899262678342
H            5.02645986141401       -2.74405067329663        0.54899814397815
H            5.02865280098008       -1.02917604739852        1.02685322316341
H            3.65178587499763       -1.57594549120481        3.04362393887918
H            3.55732349152424       -3.27906681641111        2.52837248503329
H            5.11400074442279       -2.57686848802020        3.01043171945383
H            0.20581517278330        1.14914418616660        1.32610356318255
H           -0.07941919297818        0.56626365115390        2.98842354190886
H           -3.41633822726834        2.87494927916746        1.42821854362379
H           -3.55173440018024        3.65032415563886       -0.17423605248045
H           -5.97881651510651        3.01796961208775       -0.26486137432910
H           -5.83737702054920        2.25183523818068        1.33833384263122
H           -5.62619196643235        4.00594328898206        1.16652455340391
H           -0.96401259719492       -0.68275913646889       -2.35961921083077
H           -1.10836521346111       -1.54866544546864       -0.80393969698004
H           -1.60148812773565       -3.06268475813219       -2.72626196800698
H           -3.03432227128357       -2.86135011490539       -1.69795025235832
H           -2.91677134472076       -1.99239945937808       -3.25000779127896
