  17
 
 C          1.8498777579       -1.4497894543        0.0476420781
 C          0.5539455756       -0.7082396877        0.0028032019
 C         -0.6601231304       -1.3832511437       -0.0343836455
 C         -1.8397892057       -0.6601500986       -0.0741013781
 N         -1.8793365646        0.6633986441       -0.0787049341
 C         -0.7222831194        1.3070236891       -0.0432025713
 C          0.5222146073        0.6918227008       -0.0017913509
 C          1.7789220730        1.5001948735        0.0355515917
 H          2.3986716457       -1.1940876354        0.9527204410
 H          1.6801098324       -2.5225591707        0.0303136353
 H          2.4712370577       -1.1763669140       -0.8035426051
 H         -0.6866022474       -2.4622967226       -0.0324629440
 H         -2.8010276853       -1.1558290944       -0.1036952427
 H         -0.7989780293        2.3873646943       -0.0483280209
 H          2.3562744345        1.2634735937        0.9275344261
 H          2.3990974887        1.2769640242       -0.8311552084
 H          1.5494294662        2.5620570960        0.0375268058
          17
        -22.49920932
 C          1.8642941762       -1.4295179567        0.0003173621
 C          0.5601932468       -0.7010317436       -0.0002021666
 C         -0.6476103873       -1.3882104897       -0.0002555607
 C         -1.8351100202       -0.6769834973       -0.0001032652
 N         -1.8880705100        0.6461084559        0.0001986450
 C         -0.7369783267        1.3013067025        0.0002928305
 C          0.5143072006        0.6986304995       -0.0001016204
 C          1.7633569994        1.5195910018       -0.0002390441
 H          2.4453650579       -1.1614019378        0.8811370212
 H          1.7048662211       -2.5040269331       -0.0027450415
 H          2.4490216893       -1.1567856935       -0.8766108750
 H         -0.6631643232       -2.4674652326       -0.0002865432
 H         -2.7917907639       -1.1822513748       -0.0002503737
 H         -0.8246258677        2.3808229329       -0.0002109286
 H          1.5233015876        2.5791611460       -0.0009088817
 H          2.3641722227        1.2962763304        0.8800471917
 H          2.3650295568        1.2951199751       -0.8794587820
