 xtb: 6.7.1 (edcfbbe)
          04092507313D

 38 37  0     0  0            999 V2000
    5.3525   -0.4449   -0.3218 C   0  0  0  0  0  0  0  0  0  0  0  0
    4.8455   -1.1196   -1.5862 C   0  0  0  0  0  0  0  0  0  0  0  0
    3.5180   -1.6447   -1.3873 O   0  0  0  0  0  0  0  0  0  0  0  0
    2.4897   -0.8523   -1.6093 C   0  0  0  0  0  0  0  0  0  0  0  0
    2.5686    0.2918   -1.9974 O   0  0  0  0  0  0  0  0  0  0  0  0
    1.1776   -1.5720   -1.3490 C   0  0  0  0  0  0  0  0  0  0  0  0
    0.1890   -0.6080   -0.7108 C   0  0  0  0  0  0  0  0  0  0  0  0
    0.1630    0.3252   -1.2908 H   0  0  0  0  0  0  0  0  0  0  0  0
    0.5472   -0.2239    0.7078 C   0  0  0  0  0  0  0  0  0  0  0  0
   -0.3079    0.0114    1.5412 O   0  0  0  0  0  0  0  0  0  0  0  0
    1.8320   -0.1667    0.9151 O   0  0  0  0  0  0  0  0  0  0  0  0
    2.2992    0.3145    2.1964 C   0  0  0  0  0  0  0  0  0  0  0  0
    2.3614    1.8323    2.2043 C   0  0  0  0  0  0  0  0  0  0  0  0
   -1.5051   -1.2915   -0.6775 S   0  0  0  0  0  0  0  0  0  0  0  0
   -2.4956    0.3562    0.2192 P   0  0  0  0  0  0  0  0  0  0  0  0
   -1.7347    2.1530   -0.0412 S   0  0  0  0  0  0  0  0  0  0  0  0
   -3.9264    0.2080   -0.4904 O   0  0  0  0  0  0  0  0  0  0  0  0
   -4.0893    0.4586   -1.8883 C   0  0  0  0  0  0  0  0  0  0  0  0
   -3.0515   -0.0471    1.6472 O   0  0  0  0  0  0  0  0  0  0  0  0
   -2.6781    0.5545    2.8885 C   0  0  0  0  0  0  0  0  0  0  0  0
    5.3392   -1.1473    0.5068 H   0  0  0  0  0  0  0  0  0  0  0  0
    6.3679   -0.0976   -0.4814 H   0  0  0  0  0  0  0  0  0  0  0  0
    4.7208    0.4063   -0.0796 H   0  0  0  0  0  0  0  0  0  0  0  0
    5.4490   -1.9898   -1.8443 H   0  0  0  0  0  0  0  0  0  0  0  0
    4.8194   -0.4113   -2.4190 H   0  0  0  0  0  0  0  0  0  0  0  0
    1.3565   -2.4424   -0.7203 H   0  0  0  0  0  0  0  0  0  0  0  0
    0.7753   -1.9055   -2.3073 H   0  0  0  0  0  0  0  0  0  0  0  0
    1.6244   -0.0533    2.9734 H   0  0  0  0  0  0  0  0  0  0  0  0
    3.2889   -0.1283    2.3056 H   0  0  0  0  0  0  0  0  0  0  0  0
    2.9992    2.1878    1.3992 H   0  0  0  0  0  0  0  0  0  0  0  0
    1.3665    2.2517    2.0655 H   0  0  0  0  0  0  0  0  0  0  0  0
    2.7589    2.1720    3.1547 H   0  0  0  0  0  0  0  0  0  0  0  0
   -5.1627    0.4820   -2.0573 H   0  0  0  0  0  0  0  0  0  0  0  0
   -3.6275   -0.3390   -2.4712 H   0  0  0  0  0  0  0  0  0  0  0  0
   -3.6425    1.4195   -2.1520 H   0  0  0  0  0  0  0  0  0  0  0  0
   -1.9960   -0.1109    3.4138 H   0  0  0  0  0  0  0  0  0  0  0  0
   -3.6007    0.6891    3.4494 H   0  0  0  0  0  0  0  0  0  0  0  0
   -2.1940    1.5172    2.7168 H   0  0  0  0  0  0  0  0  0  0  0  0
  1  2  1  0  0  0  0
  2  3  1  0  0  0  0
  3  4  1  0  0  0  0
  4  5  2  0  0  0  0
  4  6  1  0  0  0  0
  6  7  1  0  0  0  0
  7  8  1  0  0  0  0
  7  9  1  0  0  0  0
  9 10  2  0  0  0  0
  9 11  4  0  0  0  0
 11 12  1  0  0  0  0
 12 13  1  0  0  0  0
  7 14  1  0  0  0  0
 14 15  1  0  0  0  0
 15 16  2  0  0  0  0
 15 17  1  0  0  0  0
 17 18  1  0  0  0  0
 15 19  2  0  0  0  0
 19 20  1  0  0  0  0
  1 21  1  0  0  0  0
  1 22  1  0  0  0  0
  1 23  1  0  0  0  0
  2 24  1  0  0  0  0
  2 25  1  0  0  0  0
  6 26  1  0  0  0  0
  6 27  1  0  0  0  0
 12 28  1  0  0  0  0
 12 29  1  0  0  0  0
 13 30  1  0  0  0  0
 13 31  1  0  0  0  0
 13 32  1  0  0  0  0
 18 33  1  0  0  0  0
 18 34  1  0  0  0  0
 18 35  1  0  0  0  0
 20 36  1  0  0  0  0
 20 37  1  0  0  0  0
 20 38  1  0  0  0  0
M  END
