41
 xtb: 6.7.1 (edcfbbe)
C            2.52405083535108       -1.21200968492934        3.32458968436897
C            1.44554589838847       -1.08295911668754        2.27869023504751
O            1.67828201010991        0.11540395802635        1.46641552467858
P            2.41073435232882        0.10457640553740        0.03597754846097
S            3.14064072627050       -1.60669666316174       -0.54271809224847
O            3.40406148260099        1.33772951034791        0.31412897413688
C            4.10639085507149        2.11886404446335       -0.71668228736781
C            5.15458547431952        1.32747854428322       -1.45756179982288
S            1.02538848999227        1.00018430545031       -1.31076431107974
C            0.18127984727956       -0.48100731431156       -1.97782338721363
S           -0.78004782342670       -1.50222911840804       -0.79068753983250
P           -2.27777648298877       -0.14249448630325       -0.17451377641582
S           -2.91058950008769        1.12179111044169       -1.51505821145693
O           -1.63179078461111        0.45633280242200        1.16383401941115
C           -2.23623971837768        1.60614714563712        1.86269556039483
C           -1.26640327729965        2.75854273210772        1.82739223925055
O           -3.36944299708758       -1.14808916658154        0.45255370381816
C           -4.34133958623516       -1.84577011618477       -0.40625590131529
C           -5.72796794114048       -1.35655631726930       -0.07660654249989
H            3.50285390171877       -1.36764739870743        2.86113417558546
H            2.56627222583181       -0.32013585864402        3.95638992097424
H            2.30156445550451       -2.07538243628794        3.96046160985188
H            0.46017301151703       -0.92385192559040        2.72300611342757
H            1.40327872605110       -1.95783931467571        1.62475870239203
H            3.36311869548856        2.54571382442843       -1.39665858557758
H            4.55495511459273        2.93018668135704       -0.14020652422242
H            5.71958645032687        2.02310347213643       -2.08686517187115
H            5.85021764680108        0.84805732888709       -0.76298987901823
H            4.71028270951089        0.56527338958304       -2.10162468629606
H            0.91776969097341       -1.16216385652843       -2.41418075848769
H           -0.48487893533478       -0.10801799553230       -2.76094303454375
H           -3.19111547081039        1.86013753078266        1.39291921507933
H           -2.42324429262520        1.25561987967244        2.88068328013795
H           -1.10626672074176        3.10445941532602        0.80234657795798
H           -1.67398187897930        3.58755415538113        2.41503850944002
H           -0.30402392892500        2.46831221988171        2.25998551873500
H           -4.09041332362042       -1.67360501176937       -1.45740779749008
H           -4.21547312952769       -2.90778876885392       -0.18163973419597
H           -5.83367372298227       -0.29387337045944       -0.31307491588591
H           -6.45590260655561       -1.91879391218683       -0.67039685601389
H           -5.95418718844566       -1.51105188974014        0.98232147286910
