 xtb: 6.7.1 (edcfbbe)
          04092505203D

 41 40  0     0  0            999 V2000
    2.5656   -0.8562   -2.9180 C   0  0  0  0  0  0  0  0  0  0  0  0
    2.7984    0.4743   -2.2308 C   0  0  0  0  0  0  0  0  0  0  0  0
    3.2140    0.2810   -0.8655 O   0  0  0  0  0  0  0  0  0  0  0  0
    2.2847    0.3310    0.4184 P   0  0  0  0  0  0  0  0  0  0  0  0
    1.2922    1.9825    0.7642 S   0  0  0  0  0  0  0  0  0  0  0  0
    3.3467    0.1202    1.5638 O   0  0  0  0  0  0  0  0  0  0  0  0
    4.2477   -1.0175    1.6254 C   0  0  0  0  0  0  0  0  0  0  0  0
    3.8554   -1.9294    2.7708 C   0  0  0  0  0  0  0  0  0  0  0  0
    1.1509   -1.4688    0.3621 S   0  0  0  0  0  0  0  0  0  0  0  0
   -0.1456   -0.9743    1.5434 C   0  0  0  0  0  0  0  0  0  0  0  0
   -1.8161   -1.3202    0.9494 S   0  0  0  0  0  0  0  0  0  0  0  0
   -2.0338    0.2668   -0.4628 P   0  0  0  0  0  0  0  0  0  0  0  0
   -0.7365    0.4237   -1.9160 S   0  0  0  0  0  0  0  0  0  0  0  0
   -2.0366    1.6009    0.3734 O   0  0  0  0  0  0  0  0  0  0  0  0
   -2.9319    1.8734    1.4780 C   0  0  0  0  0  0  0  0  0  0  0  0
   -4.1082    2.7089    1.0161 C   0  0  0  0  0  0  0  0  0  0  0  0
   -3.5578    0.1096   -0.8816 O   0  0  0  0  0  0  0  0  0  0  0  0
   -4.1777   -1.1195   -1.3087 C   0  0  0  0  0  0  0  0  0  0  0  0
   -3.4009   -1.8256   -2.3992 C   0  0  0  0  0  0  0  0  0  0  0  0
    2.3603   -0.6756   -3.9678 H   0  0  0  0  0  0  0  0  0  0  0  0
    3.4446   -1.4872   -2.8223 H   0  0  0  0  0  0  0  0  0  0  0  0
    1.7082   -1.3628   -2.4814 H   0  0  0  0  0  0  0  0  0  0  0  0
    1.8959    1.0913   -2.2555 H   0  0  0  0  0  0  0  0  0  0  0  0
    3.6251    1.0201   -2.6895 H   0  0  0  0  0  0  0  0  0  0  0  0
    4.2269   -1.5447    0.6696 H   0  0  0  0  0  0  0  0  0  0  0  0
    5.2355   -0.5822    1.7824 H   0  0  0  0  0  0  0  0  0  0  0  0
    3.7863   -1.3579    3.6921 H   0  0  0  0  0  0  0  0  0  0  0  0
    2.8964   -2.4008    2.5716 H   0  0  0  0  0  0  0  0  0  0  0  0
    4.6113   -2.7001    2.8831 H   0  0  0  0  0  0  0  0  0  0  0  0
   -0.0368    0.0969    1.7353 H   0  0  0  0  0  0  0  0  0  0  0  0
   -0.0336   -1.5570    2.4540 H   0  0  0  0  0  0  0  0  0  0  0  0
   -3.2650    0.9257    1.9111 H   0  0  0  0  0  0  0  0  0  0  0  0
   -2.3159    2.4162    2.1983 H   0  0  0  0  0  0  0  0  0  0  0  0
   -4.7312    2.9486    1.8721 H   0  0  0  0  0  0  0  0  0  0  0  0
   -3.7523    3.6293    0.5611 H   0  0  0  0  0  0  0  0  0  0  0  0
   -4.6949    2.1609    0.2836 H   0  0  0  0  0  0  0  0  0  0  0  0
   -4.2862   -1.7640   -0.4321 H   0  0  0  0  0  0  0  0  0  0  0  0
   -5.1606   -0.8018   -1.6612 H   0  0  0  0  0  0  0  0  0  0  0  0
   -2.4295   -2.1442   -2.0227 H   0  0  0  0  0  0  0  0  0  0  0  0
   -3.9555   -2.6979   -2.7293 H   0  0  0  0  0  0  0  0  0  0  0  0
   -3.2388   -1.1591   -3.2433 H   0  0  0  0  0  0  0  0  0  0  0  0
  1  2  1  0  0  0  0
  2  3  1  0  0  0  0
  3  4  2  0  0  0  0
  4  5  2  0  0  0  0
  4  6  2  0  0  0  0
  6  7  1  0  0  0  0
  7  8  1  0  0  0  0
  4  9  1  0  0  0  0
  9 10  1  0  0  0  0
 10 11  1  0  0  0  0
 11 12  1  0  0  0  0
 12 13  2  0  0  0  0
 12 14  2  0  0  0  0
 14 15  1  0  0  0  0
 15 16  1  0  0  0  0
 12 17  2  0  0  0  0
 17 18  1  0  0  0  0
 18 19  1  0  0  0  0
  1 20  1  0  0  0  0
  1 21  1  0  0  0  0
  1 22  1  0  0  0  0
  2 23  1  0  0  0  0
  2 24  1  0  0  0  0
  7 25  1  0  0  0  0
  7 26  1  0  0  0  0
  8 27  1  0  0  0  0
  8 28  1  0  0  0  0
  8 29  1  0  0  0  0
 10 30  1  0  0  0  0
 10 31  1  0  0  0  0
 15 32  1  0  0  0  0
 15 33  1  0  0  0  0
 16 34  1  0  0  0  0
 16 35  1  0  0  0  0
 16 36  1  0  0  0  0
 18 37  1  0  0  0  0
 18 38  1  0  0  0  0
 19 39  1  0  0  0  0
 19 40  1  0  0  0  0
 19 41  1  0  0  0  0
M  END
