 xtb: 6.7.1 (edcfbbe)
          04092505213D

 41 40  0     0  0            999 V2000
    4.7656   -0.8882   -1.3607 C   0  0  0  0  0  0  0  0  0  0  0  0
    4.5009   -0.8394    0.1299 C   0  0  0  0  0  0  0  0  0  0  0  0
    3.5367    0.1614    0.5009 O   0  0  0  0  0  0  0  0  0  0  0  0
    2.0829    0.3417   -0.1192 P   0  0  0  0  0  0  0  0  0  0  0  0
    1.9698    1.1476   -1.9070 S   0  0  0  0  0  0  0  0  0  0  0  0
    1.4065    1.1777    1.0484 O   0  0  0  0  0  0  0  0  0  0  0  0
    1.3533    2.6175    1.0153 C   0  0  0  0  0  0  0  0  0  0  0  0
    2.7285    3.2279    1.1741 C   0  0  0  0  0  0  0  0  0  0  0  0
    1.2427   -1.5831    0.1278 S   0  0  0  0  0  0  0  0  0  0  0  0
    0.2005   -1.6795   -1.3681 C   0  0  0  0  0  0  0  0  0  0  0  0
   -1.4994   -2.1824   -1.0072 S   0  0  0  0  0  0  0  0  0  0  0  0
   -2.0884   -0.5172    0.1390 P   0  0  0  0  0  0  0  0  0  0  0  0
   -1.4440    1.2331   -0.4878 S   0  0  0  0  0  0  0  0  0  0  0  0
   -1.6356   -0.9603    1.5864 O   0  0  0  0  0  0  0  0  0  0  0  0
   -1.4287   -0.0343    2.6715 C   0  0  0  0  0  0  0  0  0  0  0  0
   -2.7057    0.6893    3.0410 C   0  0  0  0  0  0  0  0  0  0  0  0
   -3.6621   -0.7018    0.2368 O   0  0  0  0  0  0  0  0  0  0  0  0
   -4.5469   -0.4804   -0.8800 C   0  0  0  0  0  0  0  0  0  0  0  0
   -5.0860    0.9372   -0.8736 C   0  0  0  0  0  0  0  0  0  0  0  0
    3.8685   -1.2005   -1.8934 H   0  0  0  0  0  0  0  0  0  0  0  0
    5.0567    0.0929   -1.7283 H   0  0  0  0  0  0  0  0  0  0  0  0
    5.5619   -1.5979   -1.5609 H   0  0  0  0  0  0  0  0  0  0  0  0
    5.3955   -0.5480    0.6834 H   0  0  0  0  0  0  0  0  0  0  0  0
    4.1415   -1.8072    0.4909 H   0  0  0  0  0  0  0  0  0  0  0  0
    0.8894    2.9262    0.0722 H   0  0  0  0  0  0  0  0  0  0  0  0
    0.6926    2.8788    1.8433 H   0  0  0  0  0  0  0  0  0  0  0  0
    3.3502    2.9552    0.3220 H   0  0  0  0  0  0  0  0  0  0  0  0
    2.6397    4.3088    1.2175 H   0  0  0  0  0  0  0  0  0  0  0  0
    3.1982    2.8615    2.0831 H   0  0  0  0  0  0  0  0  0  0  0  0
    0.6030   -2.4519   -2.0186 H   0  0  0  0  0  0  0  0  0  0  0  0
    0.2117   -0.7035   -1.8627 H   0  0  0  0  0  0  0  0  0  0  0  0
   -1.0660   -0.6669    3.4829 H   0  0  0  0  0  0  0  0  0  0  0  0
   -0.6461    0.6721    2.3782 H   0  0  0  0  0  0  0  0  0  0  0  0
   -3.4911   -0.0287    3.2620 H   0  0  0  0  0  0  0  0  0  0  0  0
   -2.5299    1.3160    3.9098 H   0  0  0  0  0  0  0  0  0  0  0  0
   -3.0259    1.3156    2.2084 H   0  0  0  0  0  0  0  0  0  0  0  0
   -4.0149   -0.6948   -1.8113 H   0  0  0  0  0  0  0  0  0  0  0  0
   -5.3462   -1.2108   -0.7426 H   0  0  0  0  0  0  0  0  0  0  0  0
   -4.2740    1.6499   -1.0014 H   0  0  0  0  0  0  0  0  0  0  0  0
   -5.7905    1.0553   -1.6904 H   0  0  0  0  0  0  0  0  0  0  0  0
   -5.5887    1.1421    0.0675 H   0  0  0  0  0  0  0  0  0  0  0  0
  1  2  1  0  0  0  0
  2  3  1  0  0  0  0
  3  4  2  0  0  0  0
  4  5  2  0  0  0  0
  4  6  2  0  0  0  0
  6  7  1  0  0  0  0
  7  8  1  0  0  0  0
  4  9  1  0  0  0  0
  9 10  1  0  0  0  0
 10 11  1  0  0  0  0
 11 12  1  0  0  0  0
 12 13  2  0  0  0  0
 12 14  2  0  0  0  0
 14 15  1  0  0  0  0
 15 16  1  0  0  0  0
 12 17  2  0  0  0  0
 17 18  1  0  0  0  0
 18 19  1  0  0  0  0
  1 20  1  0  0  0  0
  1 21  1  0  0  0  0
  1 22  1  0  0  0  0
  2 23  1  0  0  0  0
  2 24  1  0  0  0  0
  7 25  1  0  0  0  0
  7 26  1  0  0  0  0
  8 27  1  0  0  0  0
  8 28  1  0  0  0  0
  8 29  1  0  0  0  0
 10 30  1  0  0  0  0
 10 31  1  0  0  0  0
 15 32  1  0  0  0  0
 15 33  1  0  0  0  0
 16 34  1  0  0  0  0
 16 35  1  0  0  0  0
 16 36  1  0  0  0  0
 18 37  1  0  0  0  0
 18 38  1  0  0  0  0
 19 39  1  0  0  0  0
 19 40  1  0  0  0  0
 19 41  1  0  0  0  0
M  END
