41
 xtb: 6.7.1 (edcfbbe)
C            0.82483156083776       -1.04080613773028        3.23533731224232
C            1.87196560515133       -1.10837947647344        2.15390874503167
O            1.46814534392283       -0.15293288916937        1.11088073094120
P            2.30453381843452       -0.00392773336855       -0.24929048852173
S            2.97721591627528       -1.63761479733802       -1.06858715678830
O            3.39408062925991        1.09414891779293        0.19834764624408
C            4.48163511169150        1.50202305711357       -0.70584795175477
C            5.79370315666685        1.31819525371404        0.01144885058757
S            1.00443488242964        1.17714408120710       -1.42771779264980
C            0.06223923517853       -0.10679585150792       -2.34053085437428
S           -0.97588455906305       -1.25500926547526       -1.35492796922594
P           -2.37007244300052        0.07432035780956       -0.47712203654396
S           -2.93968133179575        1.58132015064568       -1.57164491985291
O           -1.67397484776954        0.40764117760189        0.92865538394646
C           -2.06076694239007        1.57366495033701        1.73756911913932
C           -3.39948591498874        1.37330858707926        2.40338524857215
O           -3.50232066810956       -0.96724622165437       -0.00037731907904
C           -4.50809057109240       -1.48172816926146       -0.94380386279616
C           -5.87584205984319       -1.07334458983465       -0.46012993027053
H            1.09200069298951       -1.74393621324551        4.03013323389670
H            0.76841912734007       -0.03743095790149        3.66664882132618
H           -0.15790608085552       -1.31880990026098        2.84335907851793
H            1.92796161225214       -2.10366006311087        1.70329401010335
H            2.86152021614046       -0.81936399807775        2.52241788724102
H            4.43828054615051        0.90473117708662       -1.62183576540966
H            4.29012740377668        2.54945115200678       -0.95324607271589
H            5.96753710471483        0.26310336964425        0.24175508066182
H            6.60469149725754        1.67117187411262       -0.63354139861290
H            5.81628381046645        1.89528425025052        0.94031104292300
H            0.75500848321614       -0.74656079696785       -2.89501561345002
H           -0.56834038143340        0.44574426453877       -3.04317674030823
H           -1.25268695833774        1.65182912347021        2.46804188821937
H           -2.04757401360825        2.45793608993460        1.09304313055806
H           -4.21159973445598        1.32932643654179        1.67126986757827
H           -3.40619035850833        0.45621288772193        2.99939569797811
H           -3.58852936855326        2.22070193186571        3.07056938865894
H           -4.30241670747170       -1.09404070909095       -1.94632529016106
H           -4.37961068221417       -2.56703377233915       -0.94910666685301
H           -6.63283905359128       -1.50632325928203       -1.12183253245020
H           -6.05530778243346       -1.43921207788289        0.55497187830303
H           -5.98502791613719        0.01489532728235       -0.47214240847505
