 xtb: 6.7.1 (edcfbbe)
          04092505213D

 41 40  0     0  0            999 V2000
    4.5028   -1.1799   -2.4023 C   0  0  0  0  0  0  0  0  0  0  0  0
    3.7990   -2.1308   -1.4575 C   0  0  0  0  0  0  0  0  0  0  0  0
    3.4207   -1.5061   -0.2156 O   0  0  0  0  0  0  0  0  0  0  0  0
    2.5495   -0.1849   -0.0731 P   0  0  0  0  0  0  0  0  0  0  0  0
    3.3980    1.5473   -0.3974 S   0  0  0  0  0  0  0  0  0  0  0  0
    2.0984   -0.2756    1.4327 O   0  0  0  0  0  0  0  0  0  0  0  0
    1.4896   -1.4569    2.0135 C   0  0  0  0  0  0  0  0  0  0  0  0
    0.5918   -1.0131    3.1497 C   0  0  0  0  0  0  0  0  0  0  0  0
    0.8407   -0.6134   -1.2834 S   0  0  0  0  0  0  0  0  0  0  0  0
    0.2071    1.0750   -1.3008 C   0  0  0  0  0  0  0  0  0  0  0  0
   -0.4528    1.5872    0.3082 S   0  0  0  0  0  0  0  0  0  0  0  0
   -2.2603    0.5016    0.1665 P   0  0  0  0  0  0  0  0  0  0  0  0
   -3.1347    0.5345   -1.5929 S   0  0  0  0  0  0  0  0  0  0  0  0
   -3.1055    1.0548    1.3943 O   0  0  0  0  0  0  0  0  0  0  0  0
   -3.7505    2.3446    1.3719 C   0  0  0  0  0  0  0  0  0  0  0  0
   -5.2011    2.2111    0.9504 C   0  0  0  0  0  0  0  0  0  0  0  0
   -1.8553   -0.9268    0.7026 O   0  0  0  0  0  0  0  0  0  0  0  0
   -2.5907   -2.1285    0.3661 C   0  0  0  0  0  0  0  0  0  0  0  0
   -1.6086   -3.2481    0.0890 C   0  0  0  0  0  0  0  0  0  0  0  0
    4.8390   -1.7249   -3.2785 H   0  0  0  0  0  0  0  0  0  0  0  0
    3.8233   -0.3885   -2.7155 H   0  0  0  0  0  0  0  0  0  0  0  0
    5.3583   -0.7211   -1.9123 H   0  0  0  0  0  0  0  0  0  0  0  0
    4.4572   -2.9429   -1.1439 H   0  0  0  0  0  0  0  0  0  0  0  0
    2.8970   -2.5393   -1.9211 H   0  0  0  0  0  0  0  0  0  0  0  0
    0.9225   -1.9775    1.2363 H   0  0  0  0  0  0  0  0  0  0  0  0
    2.2989   -2.0991    2.3657 H   0  0  0  0  0  0  0  0  0  0  0  0
   -0.2340   -0.4163    2.7689 H   0  0  0  0  0  0  0  0  0  0  0  0
    0.1957   -1.8882    3.6549 H   0  0  0  0  0  0  0  0  0  0  0  0
    1.1581   -0.4131    3.8562 H   0  0  0  0  0  0  0  0  0  0  0  0
   -0.5863    1.1159   -2.0482 H   0  0  0  0  0  0  0  0  0  0  0  0
    1.0213    1.7606   -1.5386 H   0  0  0  0  0  0  0  0  0  0  0  0
   -3.6647    2.7144    2.3953 H   0  0  0  0  0  0  0  0  0  0  0  0
   -3.2045    3.0111    0.6980 H   0  0  0  0  0  0  0  0  0  0  0  0
   -5.6797    3.1836    1.0024 H   0  0  0  0  0  0  0  0  0  0  0  0
   -5.2643    1.8391   -0.0699 H   0  0  0  0  0  0  0  0  0  0  0  0
   -5.7181    1.5190    1.6090 H   0  0  0  0  0  0  0  0  0  0  0  0
   -3.2316   -2.3581    1.2194 H   0  0  0  0  0  0  0  0  0  0  0  0
   -3.2130   -1.9244   -0.5117 H   0  0  0  0  0  0  0  0  0  0  0  0
   -0.9558   -2.9764   -0.7373 H   0  0  0  0  0  0  0  0  0  0  0  0
   -1.0069   -3.4481    0.9710 H   0  0  0  0  0  0  0  0  0  0  0  0
   -2.1626   -4.1431   -0.1752 H   0  0  0  0  0  0  0  0  0  0  0  0
  1  2  1  0  0  0  0
  2  3  1  0  0  0  0
  3  4  2  0  0  0  0
  4  5  2  0  0  0  0
  4  6  2  0  0  0  0
  6  7  1  0  0  0  0
  7  8  1  0  0  0  0
  4  9  1  0  0  0  0
  9 10  1  0  0  0  0
 10 11  1  0  0  0  0
 11 12  1  0  0  0  0
 12 13  2  0  0  0  0
 12 14  2  0  0  0  0
 14 15  1  0  0  0  0
 15 16  1  0  0  0  0
 12 17  2  0  0  0  0
 17 18  1  0  0  0  0
 18 19  1  0  0  0  0
  1 20  1  0  0  0  0
  1 21  1  0  0  0  0
  1 22  1  0  0  0  0
  2 23  1  0  0  0  0
  2 24  1  0  0  0  0
  7 25  1  0  0  0  0
  7 26  1  0  0  0  0
  8 27  1  0  0  0  0
  8 28  1  0  0  0  0
  8 29  1  0  0  0  0
 10 30  1  0  0  0  0
 10 31  1  0  0  0  0
 15 32  1  0  0  0  0
 15 33  1  0  0  0  0
 16 34  1  0  0  0  0
 16 35  1  0  0  0  0
 16 36  1  0  0  0  0
 18 37  1  0  0  0  0
 18 38  1  0  0  0  0
 19 39  1  0  0  0  0
 19 40  1  0  0  0  0
 19 41  1  0  0  0  0
M  END
