 xtb: 6.7.1 (edcfbbe)
          04092505213D

 41 40  0     0  0            999 V2000
    5.5696    0.8091   -0.2401 C   0  0  0  0  0  0  0  0  0  0  0  0
    4.2912    1.3094   -0.8845 C   0  0  0  0  0  0  0  0  0  0  0  0
    3.3215    0.2478   -1.0089 O   0  0  0  0  0  0  0  0  0  0  0  0
    2.2329   -0.0544    0.1054 P   0  0  0  0  0  0  0  0  0  0  0  0
    2.8784   -0.4197    1.9232 S   0  0  0  0  0  0  0  0  0  0  0  0
    1.4085   -1.2165   -0.5767 O   0  0  0  0  0  0  0  0  0  0  0  0
    1.6195   -2.6055   -0.2604 C   0  0  0  0  0  0  0  0  0  0  0  0
    2.9525   -3.0925   -0.7855 C   0  0  0  0  0  0  0  0  0  0  0  0
    0.9113    1.5819   -0.0785 S   0  0  0  0  0  0  0  0  0  0  0  0
    0.0320    1.3120    1.4831 C   0  0  0  0  0  0  0  0  0  0  0  0
   -0.8885   -0.2550    1.5328 S   0  0  0  0  0  0  0  0  0  0  0  0
   -2.0711   -0.0531   -0.2208 P   0  0  0  0  0  0  0  0  0  0  0  0
   -1.3978   -0.5233   -1.9920 S   0  0  0  0  0  0  0  0  0  0  0  0
   -2.5212    1.4681   -0.0230 O   0  0  0  0  0  0  0  0  0  0  0  0
   -2.9192    2.2865   -1.1404 C   0  0  0  0  0  0  0  0  0  0  0  0
   -4.3055    1.9130   -1.6234 C   0  0  0  0  0  0  0  0  0  0  0  0
   -3.3125   -0.9776    0.1207 O   0  0  0  0  0  0  0  0  0  0  0  0
   -4.1306   -0.7991    1.3052 C   0  0  0  0  0  0  0  0  0  0  0  0
   -5.5480   -1.2089    0.9609 C   0  0  0  0  0  0  0  0  0  0  0  0
    6.2948    1.6159   -0.2145 H   0  0  0  0  0  0  0  0  0  0  0  0
    5.3752    0.4747    0.7766 H   0  0  0  0  0  0  0  0  0  0  0  0
    5.9758   -0.0212   -0.8112 H   0  0  0  0  0  0  0  0  0  0  0  0
    4.4648    1.6378   -1.9110 H   0  0  0  0  0  0  0  0  0  0  0  0
    3.8547    2.1305   -0.3084 H   0  0  0  0  0  0  0  0  0  0  0  0
    1.5571   -2.7275    0.8266 H   0  0  0  0  0  0  0  0  0  0  0  0
    0.7790   -3.1116   -0.7387 H   0  0  0  0  0  0  0  0  0  0  0  0
    3.7593   -2.5648   -0.2775 H   0  0  0  0  0  0  0  0  0  0  0  0
    3.0488   -4.1570   -0.5967 H   0  0  0  0  0  0  0  0  0  0  0  0
    3.0245   -2.9024   -1.8532 H   0  0  0  0  0  0  0  0  0  0  0  0
   -0.6529    2.1457    1.6102 H   0  0  0  0  0  0  0  0  0  0  0  0
    0.7507    1.2551    2.3017 H   0  0  0  0  0  0  0  0  0  0  0  0
   -2.8809    3.3055   -0.7532 H   0  0  0  0  0  0  0  0  0  0  0  0
   -2.1839    2.1648   -1.9418 H   0  0  0  0  0  0  0  0  0  0  0  0
   -4.5906    2.5664   -2.4417 H   0  0  0  0  0  0  0  0  0  0  0  0
   -4.3021    0.8825   -1.9784 H   0  0  0  0  0  0  0  0  0  0  0  0
   -5.0275    2.0106   -0.8166 H   0  0  0  0  0  0  0  0  0  0  0  0
   -3.7102   -1.4321    2.0898 H   0  0  0  0  0  0  0  0  0  0  0  0
   -4.0794    0.2467    1.6179 H   0  0  0  0  0  0  0  0  0  0  0  0
   -5.9493   -0.5675    0.1811 H   0  0  0  0  0  0  0  0  0  0  0  0
   -5.5600   -2.2356    0.6066 H   0  0  0  0  0  0  0  0  0  0  0  0
   -6.1672   -1.1273    1.8484 H   0  0  0  0  0  0  0  0  0  0  0  0
  1  2  1  0  0  0  0
  2  3  1  0  0  0  0
  3  4  2  0  0  0  0
  4  5  2  0  0  0  0
  4  6  2  0  0  0  0
  6  7  1  0  0  0  0
  7  8  1  0  0  0  0
  4  9  1  0  0  0  0
  9 10  1  0  0  0  0
 10 11  1  0  0  0  0
 11 12  1  0  0  0  0
 12 13  2  0  0  0  0
 12 14  1  0  0  0  0
 14 15  1  0  0  0  0
 15 16  1  0  0  0  0
 12 17  2  0  0  0  0
 17 18  1  0  0  0  0
 18 19  1  0  0  0  0
  1 20  1  0  0  0  0
  1 21  1  0  0  0  0
  1 22  1  0  0  0  0
  2 23  1  0  0  0  0
  2 24  1  0  0  0  0
  7 25  1  0  0  0  0
  7 26  1  0  0  0  0
  8 27  1  0  0  0  0
  8 28  1  0  0  0  0
  8 29  1  0  0  0  0
 10 30  1  0  0  0  0
 10 31  1  0  0  0  0
 15 32  1  0  0  0  0
 15 33  1  0  0  0  0
 16 34  1  0  0  0  0
 16 35  1  0  0  0  0
 16 36  1  0  0  0  0
 18 37  1  0  0  0  0
 18 38  1  0  0  0  0
 19 39  1  0  0  0  0
 19 40  1  0  0  0  0
 19 41  1  0  0  0  0
M  END
