 xtb: 6.7.1 (edcfbbe)
          04092505213D

 41 40  0     0  0            999 V2000
    4.1766    0.1978   -2.2594 C   0  0  0  0  0  0  0  0  0  0  0  0
    4.5676   -0.0441   -0.8171 C   0  0  0  0  0  0  0  0  0  0  0  0
    3.6455    0.5396    0.1225 O   0  0  0  0  0  0  0  0  0  0  0  0
    2.0655    0.3636    0.1091 P   0  0  0  0  0  0  0  0  0  0  0  0
    1.0998    1.5159   -1.1568 S   0  0  0  0  0  0  0  0  0  0  0  0
    1.7027    0.7890    1.5850 O   0  0  0  0  0  0  0  0  0  0  0  0
    2.3452    0.2716    2.7788 C   0  0  0  0  0  0  0  0  0  0  0  0
    1.5168   -0.8296    3.4125 C   0  0  0  0  0  0  0  0  0  0  0  0
    1.9251   -1.7604   -0.0242 S   0  0  0  0  0  0  0  0  0  0  0  0
    0.1421   -2.0794    0.0066 C   0  0  0  0  0  0  0  0  0  0  0  0
   -0.7392   -1.3393   -1.4147 S   0  0  0  0  0  0  0  0  0  0  0  0
   -1.9586    0.0328   -0.3781 P   0  0  0  0  0  0  0  0  0  0  0  0
   -2.7788    1.4146   -1.4948 S   0  0  0  0  0  0  0  0  0  0  0  0
   -1.0770    0.5078    0.8550 O   0  0  0  0  0  0  0  0  0  0  0  0
   -1.3025    1.8045    1.4433 C   0  0  0  0  0  0  0  0  0  0  0  0
   -2.5977    1.8336    2.2244 C   0  0  0  0  0  0  0  0  0  0  0  0
   -2.9629   -0.9287    0.4157 O   0  0  0  0  0  0  0  0  0  0  0  0
   -3.9820   -1.6855   -0.2621 C   0  0  0  0  0  0  0  0  0  0  0  0
   -5.2997   -0.9351   -0.2772 C   0  0  0  0  0  0  0  0  0  0  0  0
    4.9446   -0.2017   -2.9137 H   0  0  0  0  0  0  0  0  0  0  0  0
    3.2301   -0.2939   -2.4824 H   0  0  0  0  0  0  0  0  0  0  0  0
    4.0588    1.2626   -2.4483 H   0  0  0  0  0  0  0  0  0  0  0  0
    5.5166    0.4388   -0.5767 H   0  0  0  0  0  0  0  0  0  0  0  0
    4.6312   -1.1156   -0.6085 H   0  0  0  0  0  0  0  0  0  0  0  0
    3.3473   -0.0765    2.5237 H   0  0  0  0  0  0  0  0  0  0  0  0
    2.4169    1.1398    3.4362 H   0  0  0  0  0  0  0  0  0  0  0  0
    1.9214   -1.0512    4.3951 H   0  0  0  0  0  0  0  0  0  0  0  0
    0.4850   -0.5041    3.5197 H   0  0  0  0  0  0  0  0  0  0  0  0
    1.5465   -1.7336    2.8095 H   0  0  0  0  0  0  0  0  0  0  0  0
   -0.2977   -1.7074    0.9284 H   0  0  0  0  0  0  0  0  0  0  0  0
    0.0493   -3.1597   -0.0774 H   0  0  0  0  0  0  0  0  0  0  0  0
   -0.4288    1.9626    2.0767 H   0  0  0  0  0  0  0  0  0  0  0  0
   -1.3070    2.5531    0.6439 H   0  0  0  0  0  0  0  0  0  0  0  0
   -2.6111    1.0378    2.9643 H   0  0  0  0  0  0  0  0  0  0  0  0
   -2.6960    2.7946    2.7191 H   0  0  0  0  0  0  0  0  0  0  0  0
   -3.4362    1.6972    1.5424 H   0  0  0  0  0  0  0  0  0  0  0  0
   -3.6468   -1.9076   -1.2809 H   0  0  0  0  0  0  0  0  0  0  0  0
   -4.0614   -2.6138    0.3070 H   0  0  0  0  0  0  0  0  0  0  0  0
   -5.6086   -0.7018    0.7378 H   0  0  0  0  0  0  0  0  0  0  0  0
   -5.1964   -0.0073   -0.8357 H   0  0  0  0  0  0  0  0  0  0  0  0
   -6.0568   -1.5511   -0.7516 H   0  0  0  0  0  0  0  0  0  0  0  0
  1  2  1  0  0  0  0
  2  3  1  0  0  0  0
  3  4  2  0  0  0  0
  4  5  2  0  0  0  0
  4  6  2  0  0  0  0
  6  7  1  0  0  0  0
  7  8  1  0  0  0  0
  4  9  1  0  0  0  0
  9 10  1  0  0  0  0
 10 11  1  0  0  0  0
 11 12  1  0  0  0  0
 12 13  2  0  0  0  0
 12 14  1  0  0  0  0
 14 15  1  0  0  0  0
 15 16  1  0  0  0  0
 12 17  1  0  0  0  0
 17 18  1  0  0  0  0
 18 19  1  0  0  0  0
  1 20  1  0  0  0  0
  1 21  1  0  0  0  0
  1 22  1  0  0  0  0
  2 23  1  0  0  0  0
  2 24  1  0  0  0  0
  7 25  1  0  0  0  0
  7 26  1  0  0  0  0
  8 27  1  0  0  0  0
  8 28  1  0  0  0  0
  8 29  1  0  0  0  0
 10 30  1  0  0  0  0
 10 31  1  0  0  0  0
 15 32  1  0  0  0  0
 15 33  1  0  0  0  0
 16 34  1  0  0  0  0
 16 35  1  0  0  0  0
 16 36  1  0  0  0  0
 18 37  1  0  0  0  0
 18 38  1  0  0  0  0
 19 39  1  0  0  0  0
 19 40  1  0  0  0  0
 19 41  1  0  0  0  0
M  END
