 xtb: 6.7.1 (edcfbbe)
          04032519423D

 20 20  0     0  0            999 V2000
    0.6035    1.4403    0.0083 C   0  0  0  0  0  0  0  0  0  0  0  0
    1.5266    0.2015    0.0779 C   0  0  0  0  0  0  0  0  0  0  0  0
    2.3956    0.3311   -0.5753 H   0  0  0  0  0  0  0  0  0  0  0  0
    0.7434   -1.0392   -0.4105 C   0  0  0  0  0  0  0  0  0  0  0  0
    1.2162   -1.9338    0.0073 H   0  0  0  0  0  0  0  0  0  0  0  0
   -0.7043   -0.9545    0.1110 C   0  0  0  0  0  0  0  0  0  0  0  0
   -1.2582   -1.8519   -0.2009 H   0  0  0  0  0  0  0  0  0  0  0  0
   -1.3855    0.2849   -0.5225 C   0  0  0  0  0  0  0  0  0  0  0  0
   -1.9016   -0.0094   -1.4474 H   0  0  0  0  0  0  0  0  0  0  0  0
   -0.4441    1.2480   -0.9342 O   0  0  0  0  0  0  0  0  0  0  0  0
   -2.2848    0.7986    0.4085 O   0  0  0  0  0  0  0  0  0  0  0  0
   -0.6536   -0.8774    1.5120 O   0  0  0  0  0  0  0  0  0  0  0  0
    0.7880   -1.1917   -1.8052 O   0  0  0  0  0  0  0  0  0  0  0  0
    2.0466    0.0179    1.3680 O   0  0  0  0  0  0  0  0  0  0  0  0
    1.1424    2.3253   -0.3262 H   0  0  0  0  0  0  0  0  0  0  0  0
    0.1824    1.6288    1.0021 H   0  0  0  0  0  0  0  0  0  0  0  0
   -2.7514    1.5621    0.0382 H   0  0  0  0  0  0  0  0  0  0  0  0
   -1.5142   -0.5591    1.8306 H   0  0  0  0  0  0  0  0  0  0  0  0
    0.5265   -0.3577   -2.2249 H   0  0  0  0  0  0  0  0  0  0  0  0
    1.3204   -0.2658    1.9495 H   0  0  0  0  0  0  0  0  0  0  0  0
  1  2  1  0  0  0  0
  2  3  1  0  0  0  0
  2  4  1  0  0  0  0
  4  5  1  0  0  0  0
  4  6  1  0  0  0  0
  6  7  1  0  0  0  0
  6  8  1  0  0  0  0
  8  9  1  0  0  0  0
  1 10  1  0  0  0  0
  8 10  1  0  0  0  0
  8 11  1  0  0  0  0
  6 12  1  0  0  0  0
  4 13  1  0  0  0  0
  2 14  1  0  0  0  0
  1 15  1  0  0  0  0
  1 16  1  0  0  0  0
 11 17  1  0  0  0  0
 12 18  1  0  0  0  0
 13 19  1  0  0  0  0
 14 20  1  0  0  0  0
M  END
