 xtb: 6.7.1 (edcfbbe)
          04092505203D

 41 40  0     0  0            999 V2000
    4.5990   -1.6580   -0.4652 C   0  0  0  0  0  0  0  0  0  0  0  0
    4.6019   -0.1589   -0.2471 C   0  0  0  0  0  0  0  0  0  0  0  0
    3.4380    0.2840    0.4714 O   0  0  0  0  0  0  0  0  0  0  0  0
    1.9866    0.3060   -0.1834 P   0  0  0  0  0  0  0  0  0  0  0  0
    1.9958    0.7609   -2.0968 S   0  0  0  0  0  0  0  0  0  0  0  0
    1.2115    1.2046    0.8655 O   0  0  0  0  0  0  0  0  0  0  0  0
    1.6315    2.5062    1.3219 C   0  0  0  0  0  0  0  0  0  0  0  0
    1.7952    3.4960    0.1877 C   0  0  0  0  0  0  0  0  0  0  0  0
    1.1620   -1.5697    0.2871 S   0  0  0  0  0  0  0  0  0  0  0  0
   -0.0385   -1.7639   -1.0726 C   0  0  0  0  0  0  0  0  0  0  0  0
   -1.7347   -1.9345   -0.4880 S   0  0  0  0  0  0  0  0  0  0  0  0
   -2.0411    0.0624    0.1859 P   0  0  0  0  0  0  0  0  0  0  0  0
   -1.3622    1.4557   -1.0113 S   0  0  0  0  0  0  0  0  0  0  0  0
   -1.4172    0.2446    1.6228 O   0  0  0  0  0  0  0  0  0  0  0  0
   -1.8658   -0.4125    2.8360 C   0  0  0  0  0  0  0  0  0  0  0  0
   -1.1416   -1.7234    3.0693 C   0  0  0  0  0  0  0  0  0  0  0  0
   -3.5945    0.0749    0.5201 O   0  0  0  0  0  0  0  0  0  0  0  0
   -4.6360   -0.4294   -0.3375 C   0  0  0  0  0  0  0  0  0  0  0  0
   -4.6198    0.2004   -1.7141 C   0  0  0  0  0  0  0  0  0  0  0  0
    4.4404   -2.1770    0.4765 H   0  0  0  0  0  0  0  0  0  0  0  0
    3.8026   -1.9304   -1.1560 H   0  0  0  0  0  0  0  0  0  0  0  0
    5.5511   -1.9594   -0.8896 H   0  0  0  0  0  0  0  0  0  0  0  0
    4.6369    0.3684   -1.2060 H   0  0  0  0  0  0  0  0  0  0  0  0
    5.4344    0.1564    0.3835 H   0  0  0  0  0  0  0  0  0  0  0  0
    0.8267    2.8063    1.9958 H   0  0  0  0  0  0  0  0  0  0  0  0
    2.5642    2.3861    1.8786 H   0  0  0  0  0  0  0  0  0  0  0  0
    2.6176    3.1960   -0.4608 H   0  0  0  0  0  0  0  0  0  0  0  0
    0.8849    3.5335   -0.4089 H   0  0  0  0  0  0  0  0  0  0  0  0
    2.0013    4.4819    0.5921 H   0  0  0  0  0  0  0  0  0  0  0  0
    0.1906   -2.6872   -1.5983 H   0  0  0  0  0  0  0  0  0  0  0  0
    0.0447   -0.8989   -1.7373 H   0  0  0  0  0  0  0  0  0  0  0  0
   -1.6323    0.3112    3.6188 H   0  0  0  0  0  0  0  0  0  0  0  0
   -2.9458   -0.5564    2.7784 H   0  0  0  0  0  0  0  0  0  0  0  0
   -1.4213   -2.1070    4.0455 H   0  0  0  0  0  0  0  0  0  0  0  0
   -1.4074   -2.4565    2.3118 H   0  0  0  0  0  0  0  0  0  0  0  0
   -0.0658   -1.5697    3.0405 H   0  0  0  0  0  0  0  0  0  0  0  0
   -4.5245   -1.5147   -0.4071 H   0  0  0  0  0  0  0  0  0  0  0  0
   -5.5519   -0.1820    0.2023 H   0  0  0  0  0  0  0  0  0  0  0  0
   -4.6661    1.2842   -1.6369 H   0  0  0  0  0  0  0  0  0  0  0  0
   -3.7034   -0.0651   -2.2394 H   0  0  0  0  0  0  0  0  0  0  0  0
   -5.4708   -0.1574   -2.2844 H   0  0  0  0  0  0  0  0  0  0  0  0
  1  2  1  0  0  0  0
  2  3  1  0  0  0  0
  3  4  2  0  0  0  0
  4  5  2  0  0  0  0
  4  6  2  0  0  0  0
  6  7  1  0  0  0  0
  7  8  1  0  0  0  0
  4  9  1  0  0  0  0
  9 10  1  0  0  0  0
 10 11  1  0  0  0  0
 11 12  1  0  0  0  0
 12 13  2  0  0  0  0
 12 14  2  0  0  0  0
 14 15  1  0  0  0  0
 15 16  1  0  0  0  0
 12 17  2  0  0  0  0
 17 18  1  0  0  0  0
 18 19  1  0  0  0  0
  1 20  1  0  0  0  0
  1 21  1  0  0  0  0
  1 22  1  0  0  0  0
  2 23  1  0  0  0  0
  2 24  1  0  0  0  0
  7 25  1  0  0  0  0
  7 26  1  0  0  0  0
  8 27  1  0  0  0  0
  8 28  1  0  0  0  0
  8 29  1  0  0  0  0
 10 30  1  0  0  0  0
 10 31  1  0  0  0  0
 15 32  1  0  0  0  0
 15 33  1  0  0  0  0
 16 34  1  0  0  0  0
 16 35  1  0  0  0  0
 16 36  1  0  0  0  0
 18 37  1  0  0  0  0
 18 38  1  0  0  0  0
 19 39  1  0  0  0  0
 19 40  1  0  0  0  0
 19 41  1  0  0  0  0
M  END
