 xtb: 6.7.1 (edcfbbe)
          04092507313D

 38 37  0     0  0            999 V2000
    5.2918   -1.8738   -1.3352 C   0  0  0  0  0  0  0  0  0  0  0  0
    4.5138   -0.5747   -1.1982 C   0  0  0  0  0  0  0  0  0  0  0  0
    3.0946   -0.8132   -1.2572 O   0  0  0  0  0  0  0  0  0  0  0  0
    2.4655   -1.1285   -0.1413 C   0  0  0  0  0  0  0  0  0  0  0  0
    2.9930   -1.2327    0.9417 O   0  0  0  0  0  0  0  0  0  0  0  0
    0.9835   -1.3569   -0.3884 C   0  0  0  0  0  0  0  0  0  0  0  0
    0.3569   -0.1366   -1.0659 C   0  0  0  0  0  0  0  0  0  0  0  0
    0.8638    0.0578   -2.0152 H   0  0  0  0  0  0  0  0  0  0  0  0
    0.4567    1.0917   -0.1847 C   0  0  0  0  0  0  0  0  0  0  0  0
   -0.5171    1.7004    0.2141 O   0  0  0  0  0  0  0  0  0  0  0  0
    1.6932    1.3995    0.0918 O   0  0  0  0  0  0  0  0  0  0  0  0
    1.9363    2.4886    1.0113 C   0  0  0  0  0  0  0  0  0  0  0  0
    3.3832    2.4076    1.4537 C   0  0  0  0  0  0  0  0  0  0  0  0
   -1.3912   -0.4017   -1.4910 S   0  0  0  0  0  0  0  0  0  0  0  0
   -2.4044   -0.0168    0.3447 P   0  0  0  0  0  0  0  0  0  0  0  0
   -1.5423   -0.4246    2.0590 S   0  0  0  0  0  0  0  0  0  0  0  0
   -3.1505    1.3750    0.2918 O   0  0  0  0  0  0  0  0  0  0  0  0
   -3.9670    1.7750   -0.8257 C   0  0  0  0  0  0  0  0  0  0  0  0
   -3.6793   -0.9715    0.0967 O   0  0  0  0  0  0  0  0  0  0  0  0
   -3.5733   -2.3955    0.1502 C   0  0  0  0  0  0  0  0  0  0  0  0
    5.0141   -2.3825   -2.2541 H   0  0  0  0  0  0  0  0  0  0  0  0
    6.3544   -1.6554   -1.3539 H   0  0  0  0  0  0  0  0  0  0  0  0
    5.0810   -2.5260   -0.4907 H   0  0  0  0  0  0  0  0  0  0  0  0
    4.7119    0.0970   -2.0334 H   0  0  0  0  0  0  0  0  0  0  0  0
    4.7446   -0.0841   -0.2488 H   0  0  0  0  0  0  0  0  0  0  0  0
    0.5019   -1.5613    0.5705 H   0  0  0  0  0  0  0  0  0  0  0  0
    0.8675   -2.2197   -1.0460 H   0  0  0  0  0  0  0  0  0  0  0  0
    1.7183    3.4248    0.4896 H   0  0  0  0  0  0  0  0  0  0  0  0
    1.2432    2.3843    1.8518 H   0  0  0  0  0  0  0  0  0  0  0  0
    3.5764    1.4359    1.9016 H   0  0  0  0  0  0  0  0  0  0  0  0
    4.0435    2.5452    0.6028 H   0  0  0  0  0  0  0  0  0  0  0  0
    3.5759    3.1829    2.1875 H   0  0  0  0  0  0  0  0  0  0  0  0
   -4.2987    2.7814   -0.5838 H   0  0  0  0  0  0  0  0  0  0  0  0
   -4.8139    1.0986   -0.9277 H   0  0  0  0  0  0  0  0  0  0  0  0
   -3.3736    1.7748   -1.7400 H   0  0  0  0  0  0  0  0  0  0  0  0
   -3.0806   -2.7642   -0.7493 H   0  0  0  0  0  0  0  0  0  0  0  0
   -4.5941   -2.7646    0.2073 H   0  0  0  0  0  0  0  0  0  0  0  0
   -3.0107   -2.6960    1.0361 H   0  0  0  0  0  0  0  0  0  0  0  0
  1  2  1  0  0  0  0
  2  3  1  0  0  0  0
  3  4  1  0  0  0  0
  4  5  2  0  0  0  0
  4  6  1  0  0  0  0
  6  7  1  0  0  0  0
  7  8  1  0  0  0  0
  7  9  1  0  0  0  0
  9 10  2  0  0  0  0
  9 11  4  0  0  0  0
 11 12  1  0  0  0  0
 12 13  1  0  0  0  0
  7 14  1  0  0  0  0
 14 15  1  0  0  0  0
 15 16  2  0  0  0  0
 15 17  2  0  0  0  0
 17 18  1  0  0  0  0
 15 19  1  0  0  0  0
 19 20  1  0  0  0  0
  1 21  1  0  0  0  0
  1 22  1  0  0  0  0
  1 23  1  0  0  0  0
  2 24  1  0  0  0  0
  2 25  1  0  0  0  0
  6 26  1  0  0  0  0
  6 27  1  0  0  0  0
 12 28  1  0  0  0  0
 12 29  1  0  0  0  0
 13 30  1  0  0  0  0
 13 31  1  0  0  0  0
 13 32  1  0  0  0  0
 18 33  1  0  0  0  0
 18 34  1  0  0  0  0
 18 35  1  0  0  0  0
 20 36  1  0  0  0  0
 20 37  1  0  0  0  0
 20 38  1  0  0  0  0
M  END
