14
 xtb: 6.7.1 (edcfbbe)
C           -0.33630769460710       -1.21643032493445       -0.00022891132187
C            1.04672696659720       -1.21559347767502       -0.00003011130112
C            1.73850190538089       -0.00015374632249        0.00001967572536
C            1.04734370297126        1.21573308068853       -0.00007522527557
C           -0.33457402824278        1.21644749977402       -0.00027428774648
C           -1.03748077129445       -0.00017066392057       -0.00033847103958
C           -2.45316309179931       -0.00030002334088        0.00005791501862
N           -3.61558112283957       -0.00113125831330        0.00083662762599
O            3.09954402106876        0.05630985855001        0.00017798030028
H           -0.88185031674261       -2.15350009444106       -0.00023021344789
H            1.59921473676762       -2.15042940407816        0.00011642003030
H            1.60366321805619        2.14670263257796        0.00003367637991
H           -0.88069988746965        2.15315960436103       -0.00031397678271
H            3.46054627312484       -0.84246883269167        0.00021305554477
