 xtb: 6.7.1 (edcfbbe)
          04092507313D

 38 37  0     0  0            999 V2000
    5.4022   -1.7600   -0.4714 C   0  0  0  0  0  0  0  0  0  0  0  0
    4.2522   -2.3255    0.3466 C   0  0  0  0  0  0  0  0  0  0  0  0
    3.0069   -2.2166   -0.3733 O   0  0  0  0  0  0  0  0  0  0  0  0
    2.3227   -1.0999   -0.2824 C   0  0  0  0  0  0  0  0  0  0  0  0
    2.6592   -0.1322    0.3725 O   0  0  0  0  0  0  0  0  0  0  0  0
    1.0304   -1.1684   -1.0601 C   0  0  0  0  0  0  0  0  0  0  0  0
    0.4611    0.2294   -1.2797 C   0  0  0  0  0  0  0  0  0  0  0  0
    0.8974    0.7152   -2.1536 H   0  0  0  0  0  0  0  0  0  0  0  0
    0.6444    1.1271   -0.0695 C   0  0  0  0  0  0  0  0  0  0  0  0
    0.0496    0.9279    0.9754 O   0  0  0  0  0  0  0  0  0  0  0  0
    1.3596    2.1835   -0.3411 O   0  0  0  0  0  0  0  0  0  0  0  0
    1.6118    3.1365    0.7122 C   0  0  0  0  0  0  0  0  0  0  0  0
    1.8642    4.4899    0.0765 C   0  0  0  0  0  0  0  0  0  0  0  0
   -1.3347    0.1876   -1.5708 S   0  0  0  0  0  0  0  0  0  0  0  0
   -2.1417   -0.2903    0.3522 P   0  0  0  0  0  0  0  0  0  0  0  0
   -1.3840   -1.7317    1.4471 S   0  0  0  0  0  0  0  0  0  0  0  0
   -2.5258    1.0462    1.1116 O   0  0  0  0  0  0  0  0  0  0  0  0
   -3.3977    2.0329    0.5262 C   0  0  0  0  0  0  0  0  0  0  0  0
   -3.6131   -0.6914   -0.1638 O   0  0  0  0  0  0  0  0  0  0  0  0
   -3.8655   -1.9283   -0.8350 C   0  0  0  0  0  0  0  0  0  0  0  0
    6.3326   -1.9184    0.0637 H   0  0  0  0  0  0  0  0  0  0  0  0
    5.4538   -2.2567   -1.4361 H   0  0  0  0  0  0  0  0  0  0  0  0
    5.2616   -0.6928   -0.6268 H   0  0  0  0  0  0  0  0  0  0  0  0
    4.1522   -1.7965    1.2986 H   0  0  0  0  0  0  0  0  0  0  0  0
    4.3713   -3.3953    0.5179 H   0  0  0  0  0  0  0  0  0  0  0  0
    0.3478   -1.7651   -0.4416 H   0  0  0  0  0  0  0  0  0  0  0  0
    1.1764   -1.6929   -2.0029 H   0  0  0  0  0  0  0  0  0  0  0  0
    0.7483    3.1457    1.3848 H   0  0  0  0  0  0  0  0  0  0  0  0
    2.4838    2.7761    1.2656 H   0  0  0  0  0  0  0  0  0  0  0  0
    2.7042    4.4246   -0.6080 H   0  0  0  0  0  0  0  0  0  0  0  0
    0.9865    4.8182   -0.4726 H   0  0  0  0  0  0  0  0  0  0  0  0
    2.0901    5.2113    0.8546 H   0  0  0  0  0  0  0  0  0  0  0  0
   -3.3084    2.9056    1.1683 H   0  0  0  0  0  0  0  0  0  0  0  0
   -4.4199    1.6591    0.5172 H   0  0  0  0  0  0  0  0  0  0  0  0
   -3.0784    2.2647   -0.4906 H   0  0  0  0  0  0  0  0  0  0  0  0
   -3.3757   -2.7472   -0.3051 H   0  0  0  0  0  0  0  0  0  0  0  0
   -3.5005   -1.8739   -1.8601 H   0  0  0  0  0  0  0  0  0  0  0  0
   -4.9447   -2.0565   -0.8177 H   0  0  0  0  0  0  0  0  0  0  0  0
  1  2  1  0  0  0  0
  2  3  1  0  0  0  0
  3  4  4  0  0  0  0
  4  5  2  0  0  0  0
  4  6  1  0  0  0  0
  6  7  1  0  0  0  0
  7  8  1  0  0  0  0
  7  9  1  0  0  0  0
  9 10  2  0  0  0  0
  9 11  4  0  0  0  0
 11 12  1  0  0  0  0
 12 13  1  0  0  0  0
  7 14  1  0  0  0  0
 14 15  1  0  0  0  0
 15 16  2  0  0  0  0
 15 17  2  0  0  0  0
 17 18  1  0  0  0  0
 15 19  1  0  0  0  0
 19 20  1  0  0  0  0
  1 21  1  0  0  0  0
  1 22  1  0  0  0  0
  1 23  1  0  0  0  0
  2 24  1  0  0  0  0
  2 25  1  0  0  0  0
  6 26  1  0  0  0  0
  6 27  1  0  0  0  0
 12 28  1  0  0  0  0
 12 29  1  0  0  0  0
 13 30  1  0  0  0  0
 13 31  1  0  0  0  0
 13 32  1  0  0  0  0
 18 33  1  0  0  0  0
 18 34  1  0  0  0  0
 18 35  1  0  0  0  0
 20 36  1  0  0  0  0
 20 37  1  0  0  0  0
 20 38  1  0  0  0  0
M  END
