38
 xtb: 6.7.1 (edcfbbe)
C            1.82319387630693       -3.61133878295579       -2.38216008487899
C            3.07163566591294       -2.91348807645112       -1.89656026434287
O            2.75181588682291       -1.57521801874849       -1.38960470872584
C            2.29887206095654       -1.48835129553064       -0.12999834084590
O            2.19674592077558       -2.43528260288928        0.62987788659805
C            1.95963348803684       -0.06697649342691        0.23956791188200
C            0.97009732602120        0.56450576126537       -0.74153444775777
H            1.44344201985082        0.65411852712192       -1.72886533282021
C            0.53068948725525        1.98176377900992       -0.39059089931828
O           -0.44799790269460        2.52977447766594       -0.86105362240091
O            1.40323345006607        2.56569933994436        0.42811963221502
C            1.12432043436838        3.96262831889388        0.78488928854600
C            2.23545744178863        4.41207608005497        1.69605055782181
S           -0.47292263442013       -0.54338664603462       -1.10125007708753
P           -1.81893060125828       -0.19123182518001        0.50625429887365
S           -1.06554219055098        0.44712416199284        2.17701448895898
O           -2.97990418377804        0.78404329483466       -0.01457337853072
C           -3.61192925412824        0.59528202908969       -1.31634945030360
O           -2.59616489445526       -1.60449240444872        0.51496048239418
C           -1.94448153283725       -2.78432025529850        1.06672512055481
H            2.10327730871201       -4.57564175032409       -2.81803200843564
H            1.12214133663254       -3.79571976782790       -1.56320029871515
H            1.32325768075224       -3.01880080709329       -3.15391294471422
H            3.76927982204602       -2.72154284821084       -2.71367900377947
H            3.58202817354497       -3.47282821915404       -1.10881628632160
H            2.88665423694953        0.51683514469823        0.22708838381286
H            1.55718244826977       -0.06690721774882        1.25208392191608
H            1.08182050988665        4.54615713686123       -0.13887337213193
H            0.14670720815152        3.99263006077954        1.27489406847635
H            2.05677441161232        5.45165420205776        1.98561054942241
H            2.27034965781074        3.80327145295076        2.60391286408558
H            3.20404148367970        4.35752356324216        1.19122032806760
H           -2.90656287785613        0.85530740769461       -2.10922897031925
H           -4.45867312613605        1.28143508242904       -1.32735368501839
H           -3.96182756484378       -0.43336532560025       -1.43075612072208
H           -0.97399030553803       -2.94817857266834        0.58796390231652
H           -2.61353370173919       -3.61667441340712        0.84947784958906
H           -1.82157599311469       -2.66695448971241        2.14615357808110
