 xtb: 6.7.1 (edcfbbe)
          04092505203D

 41 40  0     0  0            999 V2000
    2.1860    2.0207   -1.5860 C   0  0  0  0  0  0  0  0  0  0  0  0
    2.5173    2.3406   -0.1431 C   0  0  0  0  0  0  0  0  0  0  0  0
    1.8502    1.4598    0.7953 O   0  0  0  0  0  0  0  0  0  0  0  0
    2.0917   -0.0966    0.9182 P   0  0  0  0  0  0  0  0  0  0  0  0
    1.5736   -0.7308    2.6954 S   0  0  0  0  0  0  0  0  0  0  0  0
    3.6239   -0.1985    0.5023 O   0  0  0  0  0  0  0  0  0  0  0  0
    4.3238   -1.4367    0.2821 C   0  0  0  0  0  0  0  0  0  0  0  0
    4.7349   -2.0986    1.5823 C   0  0  0  0  0  0  0  0  0  0  0  0
    1.0854   -1.0538   -0.7100 S   0  0  0  0  0  0  0  0  0  0  0  0
   -0.2159   -1.9222    0.1949 C   0  0  0  0  0  0  0  0  0  0  0  0
   -1.4812   -0.8368    0.9087 S   0  0  0  0  0  0  0  0  0  0  0  0
   -2.0437    0.1715   -0.8906 P   0  0  0  0  0  0  0  0  0  0  0  0
   -1.8472   -0.7980   -2.5735 S   0  0  0  0  0  0  0  0  0  0  0  0
   -1.2066    1.5141   -0.8505 O   0  0  0  0  0  0  0  0  0  0  0  0
   -1.3660    2.4828    0.2159 C   0  0  0  0  0  0  0  0  0  0  0  0
   -2.1753    3.6673   -0.2688 C   0  0  0  0  0  0  0  0  0  0  0  0
   -3.5118    0.6945   -0.5699 O   0  0  0  0  0  0  0  0  0  0  0  0
   -4.6855   -0.0851   -0.8620 C   0  0  0  0  0  0  0  0  0  0  0  0
   -4.7610   -1.3509   -0.0334 C   0  0  0  0  0  0  0  0  0  0  0  0
    2.6203    2.7823   -2.2262 H   0  0  0  0  0  0  0  0  0  0  0  0
    2.5933    1.0506   -1.8659 H   0  0  0  0  0  0  0  0  0  0  0  0
    1.1092    1.9979   -1.7402 H   0  0  0  0  0  0  0  0  0  0  0  0
    2.1571    3.3308    0.1418 H   0  0  0  0  0  0  0  0  0  0  0  0
    3.5919    2.2742    0.0341 H   0  0  0  0  0  0  0  0  0  0  0  0
    3.6905   -2.0989   -0.3154 H   0  0  0  0  0  0  0  0  0  0  0  0
    5.1974   -1.1420   -0.3030 H   0  0  0  0  0  0  0  0  0  0  0  0
    5.3206   -2.9852    1.3616 H   0  0  0  0  0  0  0  0  0  0  0  0
    5.3308   -1.4137    2.1796 H   0  0  0  0  0  0  0  0  0  0  0  0
    3.8585   -2.3850    2.1590 H   0  0  0  0  0  0  0  0  0  0  0  0
    0.2121   -2.4663    1.0358 H   0  0  0  0  0  0  0  0  0  0  0  0
   -0.6762   -2.5926   -0.5292 H   0  0  0  0  0  0  0  0  0  0  0  0
   -1.8431    1.9966    1.0716 H   0  0  0  0  0  0  0  0  0  0  0  0
   -0.3510    2.7739    0.4928 H   0  0  0  0  0  0  0  0  0  0  0  0
   -2.2256    4.4094    0.5219 H   0  0  0  0  0  0  0  0  0  0  0  0
   -1.7061    4.1051   -1.1455 H   0  0  0  0  0  0  0  0  0  0  0  0
   -3.1818    3.3513   -0.5299 H   0  0  0  0  0  0  0  0  0  0  0  0
   -5.5101    0.5924   -0.6361 H   0  0  0  0  0  0  0  0  0  0  0  0
   -4.6802   -0.3248   -1.9296 H   0  0  0  0  0  0  0  0  0  0  0  0
   -4.6500   -1.1218    1.0237 H   0  0  0  0  0  0  0  0  0  0  0  0
   -5.7201   -1.8305   -0.2001 H   0  0  0  0  0  0  0  0  0  0  0  0
   -3.9686   -2.0366   -0.3294 H   0  0  0  0  0  0  0  0  0  0  0  0
  1  2  1  0  0  0  0
  2  3  1  0  0  0  0
  3  4  2  0  0  0  0
  4  5  2  0  0  0  0
  4  6  2  0  0  0  0
  6  7  1  0  0  0  0
  7  8  1  0  0  0  0
  4  9  1  0  0  0  0
  9 10  1  0  0  0  0
 10 11  1  0  0  0  0
 11 12  1  0  0  0  0
 12 13  2  0  0  0  0
 12 14  2  0  0  0  0
 14 15  1  0  0  0  0
 15 16  1  0  0  0  0
 12 17  2  0  0  0  0
 17 18  1  0  0  0  0
 18 19  1  0  0  0  0
  1 20  1  0  0  0  0
  1 21  1  0  0  0  0
  1 22  1  0  0  0  0
  2 23  1  0  0  0  0
  2 24  1  0  0  0  0
  7 25  1  0  0  0  0
  7 26  1  0  0  0  0
  8 27  1  0  0  0  0
  8 28  1  0  0  0  0
  8 29  1  0  0  0  0
 10 30  1  0  0  0  0
 10 31  1  0  0  0  0
 15 32  1  0  0  0  0
 15 33  1  0  0  0  0
 16 34  1  0  0  0  0
 16 35  1  0  0  0  0
 16 36  1  0  0  0  0
 18 37  1  0  0  0  0
 18 38  1  0  0  0  0
 19 39  1  0  0  0  0
 19 40  1  0  0  0  0
 19 41  1  0  0  0  0
M  END
