 xtb: 6.7.1 (edcfbbe)
          04092505213D

 41 40  0     0  0            999 V2000
    4.3869   -1.3234   -1.9776 C   0  0  0  0  0  0  0  0  0  0  0  0
    4.3203   -0.8974   -0.5249 C   0  0  0  0  0  0  0  0  0  0  0  0
    3.6120    0.3400   -0.3408 O   0  0  0  0  0  0  0  0  0  0  0  0
    2.0468    0.5535   -0.5642 P   0  0  0  0  0  0  0  0  0  0  0  0
    1.4270    0.6138   -2.4223 S   0  0  0  0  0  0  0  0  0  0  0  0
    1.8474    1.9479    0.1344 O   0  0  0  0  0  0  0  0  0  0  0  0
    2.5287    2.4063    1.3283 C   0  0  0  0  0  0  0  0  0  0  0  0
    2.2595    1.5254    2.5297 C   0  0  0  0  0  0  0  0  0  0  0  0
    1.1867   -0.9949    0.6334 S   0  0  0  0  0  0  0  0  0  0  0  0
    0.0903   -1.7739   -0.5914 C   0  0  0  0  0  0  0  0  0  0  0  0
   -1.5538   -2.1564    0.0630 S   0  0  0  0  0  0  0  0  0  0  0  0
   -2.3827   -0.2208    0.3749 P   0  0  0  0  0  0  0  0  0  0  0  0
   -1.2928    1.3288   -0.1684 S   0  0  0  0  0  0  0  0  0  0  0  0
   -2.8658   -0.2767    1.8812 O   0  0  0  0  0  0  0  0  0  0  0  0
   -1.9281   -0.3250    2.9763 C   0  0  0  0  0  0  0  0  0  0  0  0
   -1.6902    1.0652    3.5347 C   0  0  0  0  0  0  0  0  0  0  0  0
   -3.8335   -0.2739   -0.2502 O   0  0  0  0  0  0  0  0  0  0  0  0
   -4.0962    0.1356   -1.6023 C   0  0  0  0  0  0  0  0  0  0  0  0
   -3.4206   -0.7672   -2.6160 C   0  0  0  0  0  0  0  0  0  0  0  0
    3.3900   -1.5366   -2.3586 H   0  0  0  0  0  0  0  0  0  0  0  0
    4.8190   -0.5309   -2.5836 H   0  0  0  0  0  0  0  0  0  0  0  0
    4.9995   -2.2152   -2.0617 H   0  0  0  0  0  0  0  0  0  0  0  0
    5.3153   -0.6833   -0.1301 H   0  0  0  0  0  0  0  0  0  0  0  0
    3.8391   -1.6673    0.0859 H   0  0  0  0  0  0  0  0  0  0  0  0
    3.5969    2.4596    1.1091 H   0  0  0  0  0  0  0  0  0  0  0  0
    2.1259    3.4107    1.4687 H   0  0  0  0  0  0  0  0  0  0  0  0
    2.6853    0.5344    2.3800 H   0  0  0  0  0  0  0  0  0  0  0  0
    2.7109    1.9764    3.4078 H   0  0  0  0  0  0  0  0  0  0  0  0
    1.1890    1.4253    2.6891 H   0  0  0  0  0  0  0  0  0  0  0  0
    0.5096   -2.7355   -0.8766 H   0  0  0  0  0  0  0  0  0  0  0  0
    0.0212   -1.1022   -1.4523 H   0  0  0  0  0  0  0  0  0  0  0  0
   -2.3986   -0.9751    3.7161 H   0  0  0  0  0  0  0  0  0  0  0  0
   -0.9895   -0.7804    2.6400 H   0  0  0  0  0  0  0  0  0  0  0  0
   -2.6294    1.4981    3.8671 H   0  0  0  0  0  0  0  0  0  0  0  0
   -1.0030    1.0050    4.3727 H   0  0  0  0  0  0  0  0  0  0  0  0
   -1.2690    1.7101    2.7655 H   0  0  0  0  0  0  0  0  0  0  0  0
   -5.1830    0.0878   -1.6826 H   0  0  0  0  0  0  0  0  0  0  0  0
   -3.7601    1.1703   -1.7266 H   0  0  0  0  0  0  0  0  0  0  0  0
   -3.7636   -0.5101   -3.6132 H   0  0  0  0  0  0  0  0  0  0  0  0
   -2.3396   -0.6298   -2.5766 H   0  0  0  0  0  0  0  0  0  0  0  0
   -3.6543   -1.8088   -2.4099 H   0  0  0  0  0  0  0  0  0  0  0  0
  1  2  1  0  0  0  0
  2  3  1  0  0  0  0
  3  4  2  0  0  0  0
  4  5  2  0  0  0  0
  4  6  2  0  0  0  0
  6  7  1  0  0  0  0
  7  8  1  0  0  0  0
  4  9  1  0  0  0  0
  9 10  1  0  0  0  0
 10 11  1  0  0  0  0
 11 12  1  0  0  0  0
 12 13  2  0  0  0  0
 12 14  2  0  0  0  0
 14 15  1  0  0  0  0
 15 16  1  0  0  0  0
 12 17  2  0  0  0  0
 17 18  1  0  0  0  0
 18 19  1  0  0  0  0
  1 20  1  0  0  0  0
  1 21  1  0  0  0  0
  1 22  1  0  0  0  0
  2 23  1  0  0  0  0
  2 24  1  0  0  0  0
  7 25  1  0  0  0  0
  7 26  1  0  0  0  0
  8 27  1  0  0  0  0
  8 28  1  0  0  0  0
  8 29  1  0  0  0  0
 10 30  1  0  0  0  0
 10 31  1  0  0  0  0
 15 32  1  0  0  0  0
 15 33  1  0  0  0  0
 16 34  1  0  0  0  0
 16 35  1  0  0  0  0
 16 36  1  0  0  0  0
 18 37  1  0  0  0  0
 18 38  1  0  0  0  0
 19 39  1  0  0  0  0
 19 40  1  0  0  0  0
 19 41  1  0  0  0  0
M  END
