 xtb: 6.7.1 (edcfbbe)
          04092505203D

 41 40  0     0  0            999 V2000
    5.2520   -0.3236   -1.3630 C   0  0  0  0  0  0  0  0  0  0  0  0
    4.4295   -0.7569   -0.1654 C   0  0  0  0  0  0  0  0  0  0  0  0
    3.4664    0.2487    0.2064 O   0  0  0  0  0  0  0  0  0  0  0  0
    2.0038    0.3374   -0.4152 P   0  0  0  0  0  0  0  0  0  0  0  0
    1.8667    0.6097   -2.3460 S   0  0  0  0  0  0  0  0  0  0  0  0
    1.3923    1.5263    0.4141 O   0  0  0  0  0  0  0  0  0  0  0  0
    1.4987    1.6262    1.8556 C   0  0  0  0  0  0  0  0  0  0  0  0
    2.5991    2.5922    2.2414 C   0  0  0  0  0  0  0  0  0  0  0  0
    1.1592   -1.4855    0.2999 S   0  0  0  0  0  0  0  0  0  0  0  0
   -0.0217   -1.8551   -1.0333 C   0  0  0  0  0  0  0  0  0  0  0  0
   -1.7256   -1.9981   -0.4536 S   0  0  0  0  0  0  0  0  0  0  0  0
   -2.0223    0.0337    0.1053 P   0  0  0  0  0  0  0  0  0  0  0  0
   -1.4504    1.3964   -1.1778 S   0  0  0  0  0  0  0  0  0  0  0  0
   -1.2909    0.1845    1.4965 O   0  0  0  0  0  0  0  0  0  0  0  0
   -1.5742   -0.6648    2.6409 C   0  0  0  0  0  0  0  0  0  0  0  0
   -2.5191    0.0282    3.5999 C   0  0  0  0  0  0  0  0  0  0  0  0
   -3.5563    0.0769    0.5164 O   0  0  0  0  0  0  0  0  0  0  0  0
   -4.6076    0.3347   -0.4313 C   0  0  0  0  0  0  0  0  0  0  0  0
   -4.7373   -0.7669   -1.4629 C   0  0  0  0  0  0  0  0  0  0  0  0
    4.6144   -0.2028   -2.2360 H   0  0  0  0  0  0  0  0  0  0  0  0
    5.7426    0.6241   -1.1585 H   0  0  0  0  0  0  0  0  0  0  0  0
    6.0023   -1.0791   -1.5725 H   0  0  0  0  0  0  0  0  0  0  0  0
    5.0535   -0.8702    0.7233 H   0  0  0  0  0  0  0  0  0  0  0  0
    3.9072   -1.6961   -0.3663 H   0  0  0  0  0  0  0  0  0  0  0  0
    0.5181    1.9834    2.1762 H   0  0  0  0  0  0  0  0  0  0  0  0
    1.6811    0.6291    2.2662 H   0  0  0  0  0  0  0  0  0  0  0  0
    2.4168    3.5617    1.7856 H   0  0  0  0  0  0  0  0  0  0  0  0
    2.6144    2.6991    3.3216 H   0  0  0  0  0  0  0  0  0  0  0  0
    3.5617    2.2206    1.9007 H   0  0  0  0  0  0  0  0  0  0  0  0
    0.2357   -2.8246   -1.4524 H   0  0  0  0  0  0  0  0  0  0  0  0
    0.0560   -1.0670   -1.7886 H   0  0  0  0  0  0  0  0  0  0  0  0
   -1.9934   -1.6099    2.2853 H   0  0  0  0  0  0  0  0  0  0  0  0
   -0.5989   -0.8461    3.0969 H   0  0  0  0  0  0  0  0  0  0  0  0
   -3.4795    0.2013    3.1222 H   0  0  0  0  0  0  0  0  0  0  0  0
   -2.6607   -0.6028    4.4717 H   0  0  0  0  0  0  0  0  0  0  0  0
   -2.1053    0.9831    3.9120 H   0  0  0  0  0  0  0  0  0  0  0  0
   -5.5018    0.4130    0.1887 H   0  0  0  0  0  0  0  0  0  0  0  0
   -4.4046    1.2941   -0.9169 H   0  0  0  0  0  0  0  0  0  0  0  0
   -4.8120   -1.7361   -0.9762 H   0  0  0  0  0  0  0  0  0  0  0  0
   -5.6257   -0.5933   -2.0617 H   0  0  0  0  0  0  0  0  0  0  0  0
   -3.8674   -0.7676   -2.1181 H   0  0  0  0  0  0  0  0  0  0  0  0
  1  2  1  0  0  0  0
  2  3  1  0  0  0  0
  3  4  2  0  0  0  0
  4  5  2  0  0  0  0
  4  6  2  0  0  0  0
  6  7  1  0  0  0  0
  7  8  1  0  0  0  0
  4  9  1  0  0  0  0
  9 10  1  0  0  0  0
 10 11  1  0  0  0  0
 11 12  1  0  0  0  0
 12 13  2  0  0  0  0
 12 14  2  0  0  0  0
 14 15  1  0  0  0  0
 15 16  1  0  0  0  0
 12 17  2  0  0  0  0
 17 18  1  0  0  0  0
 18 19  1  0  0  0  0
  1 20  1  0  0  0  0
  1 21  1  0  0  0  0
  1 22  1  0  0  0  0
  2 23  1  0  0  0  0
  2 24  1  0  0  0  0
  7 25  1  0  0  0  0
  7 26  1  0  0  0  0
  8 27  1  0  0  0  0
  8 28  1  0  0  0  0
  8 29  1  0  0  0  0
 10 30  1  0  0  0  0
 10 31  1  0  0  0  0
 15 32  1  0  0  0  0
 15 33  1  0  0  0  0
 16 34  1  0  0  0  0
 16 35  1  0  0  0  0
 16 36  1  0  0  0  0
 18 37  1  0  0  0  0
 18 38  1  0  0  0  0
 19 39  1  0  0  0  0
 19 40  1  0  0  0  0
 19 41  1  0  0  0  0
M  END
