 xtb: 6.7.1 (edcfbbe)
          04032521023D

 18 18  0     0  0            999 V2000
   -0.0003   -2.4521    0.0288 C   0  0  0  0  0  0  0  0  0  0  0  0
    1.2015   -1.7640    0.0447 C   0  0  0  0  0  0  0  0  0  0  0  0
    1.1930   -0.3748    0.0302 C   0  0  0  0  0  0  0  0  0  0  0  0
   -0.0009    0.3327    0.0052 C   0  0  0  0  0  0  0  0  0  0  0  0
   -1.1945   -0.3758   -0.0081 C   0  0  0  0  0  0  0  0  0  0  0  0
   -1.2026   -1.7649    0.0014 C   0  0  0  0  0  0  0  0  0  0  0  0
   -2.4771    0.4029   -0.0572 C   0  0  0  0  0  0  0  0  0  0  0  0
   -3.5656   -0.3387    0.1916 F   0  0  0  0  0  0  0  0  0  0  0  0
   -2.5025    1.4178    0.8281 F   0  0  0  0  0  0  0  0  0  0  0  0
   -2.6843    0.9717   -1.2655 F   0  0  0  0  0  0  0  0  0  0  0  0
    2.4767    0.4026    0.0687 C   0  0  0  0  0  0  0  0  0  0  0  0
    2.4871    1.4331   -0.7980 F   0  0  0  0  0  0  0  0  0  0  0  0
    2.7076    0.9487    1.2834 F   0  0  0  0  0  0  0  0  0  0  0  0
    3.5595   -0.3358   -0.2135 F   0  0  0  0  0  0  0  0  0  0  0  0
   -0.0001   -3.5293    0.0381 H   0  0  0  0  0  0  0  0  0  0  0  0
    2.1393   -2.2962    0.0643 H   0  0  0  0  0  0  0  0  0  0  0  0
   -0.0014    1.4119   -0.0041 H   0  0  0  0  0  0  0  0  0  0  0  0
   -2.1400   -2.2979   -0.0095 H   0  0  0  0  0  0  0  0  0  0  0  0
  1  2  4  0  0  0  0
  2  3  4  0  0  0  0
  3  4  4  0  0  0  0
  4  5  4  0  0  0  0
  1  6  4  0  0  0  0
  5  6  4  0  0  0  0
  5  7  1  0  0  0  0
  7  8  1  0  0  0  0
  7  9  1  0  0  0  0
  7 10  1  0  0  0  0
  3 11  1  0  0  0  0
 11 12  1  0  0  0  0
 11 13  1  0  0  0  0
 11 14  1  0  0  0  0
  1 15  1  0  0  0  0
  2 16  1  0  0  0  0
  4 17  1  0  0  0  0
  6 18  1  0  0  0  0
M  END
