 xtb: 6.7.1 (edcfbbe)
          04092505213D

 41 40  0     0  0            999 V2000
    4.5440   -1.3364   -2.2851 C   0  0  0  0  0  0  0  0  0  0  0  0
    3.8071   -2.2186   -1.2997 C   0  0  0  0  0  0  0  0  0  0  0  0
    3.4099   -1.5137   -0.1076 O   0  0  0  0  0  0  0  0  0  0  0  0
    2.5520   -0.1770   -0.0673 P   0  0  0  0  0  0  0  0  0  0  0  0
    3.4264    1.5231   -0.4804 S   0  0  0  0  0  0  0  0  0  0  0  0
    2.0671   -0.1669    1.4304 O   0  0  0  0  0  0  0  0  0  0  0  0
    1.4231   -1.2979    2.0703 C   0  0  0  0  0  0  0  0  0  0  0  0
    0.5413   -0.7675    3.1816 C   0  0  0  0  0  0  0  0  0  0  0  0
    0.8648   -0.6624   -1.2878 S   0  0  0  0  0  0  0  0  0  0  0  0
    0.2399    1.0248   -1.4034 C   0  0  0  0  0  0  0  0  0  0  0  0
   -0.4612    1.6182    0.1607 S   0  0  0  0  0  0  0  0  0  0  0  0
   -2.2470    0.5017    0.0368 P   0  0  0  0  0  0  0  0  0  0  0  0
   -3.1121    0.4455   -1.7265 S   0  0  0  0  0  0  0  0  0  0  0  0
   -3.1486    1.0947    1.2028 O   0  0  0  0  0  0  0  0  0  0  0  0
   -3.9332    2.2933    1.0416 C   0  0  0  0  0  0  0  0  0  0  0  0
   -5.1110    2.2139    1.9921 C   0  0  0  0  0  0  0  0  0  0  0  0
   -1.8148   -0.8886    0.6471 O   0  0  0  0  0  0  0  0  0  0  0  0
   -2.5812   -2.0991    0.4287 C   0  0  0  0  0  0  0  0  0  0  0  0
   -1.6232   -3.2568    0.2375 C   0  0  0  0  0  0  0  0  0  0  0  0
    4.8922   -1.9384   -3.1182 H   0  0  0  0  0  0  0  0  0  0  0  0
    3.8820   -0.5578   -2.6616 H   0  0  0  0  0  0  0  0  0  0  0  0
    5.3945   -0.8584   -1.8048 H   0  0  0  0  0  0  0  0  0  0  0  0
    4.4474   -3.0175   -0.9219 H   0  0  0  0  0  0  0  0  0  0  0  0
    2.9101   -2.6441   -1.7578 H   0  0  0  0  0  0  0  0  0  0  0  0
    0.8380   -1.8381    1.3205 H   0  0  0  0  0  0  0  0  0  0  0  0
    2.2116   -1.9473    2.4551 H   0  0  0  0  0  0  0  0  0  0  0  0
    0.1152   -1.6021    3.7292 H   0  0  0  0  0  0  0  0  0  0  0  0
    1.1278   -0.1525    3.8582 H   0  0  0  0  0  0  0  0  0  0  0  0
   -0.2630   -0.1624    2.7693 H   0  0  0  0  0  0  0  0  0  0  0  0
   -0.5330    1.0327   -2.1727 H   0  0  0  0  0  0  0  0  0  0  0  0
    1.0632    1.6957   -1.6524 H   0  0  0  0  0  0  0  0  0  0  0  0
   -3.2919    3.1486    1.2688 H   0  0  0  0  0  0  0  0  0  0  0  0
   -4.2641    2.3584   -0.0006 H   0  0  0  0  0  0  0  0  0  0  0  0
   -5.6947    3.1250    1.9116 H   0  0  0  0  0  0  0  0  0  0  0  0
   -5.7382    1.3632    1.7407 H   0  0  0  0  0  0  0  0  0  0  0  0
   -4.7561    2.1020    3.0124 H   0  0  0  0  0  0  0  0  0  0  0  0
   -3.2148   -2.2410    1.3061 H   0  0  0  0  0  0  0  0  0  0  0  0
   -3.2113   -1.9592   -0.4561 H   0  0  0  0  0  0  0  0  0  0  0  0
   -0.9695   -3.0636   -0.6099 H   0  0  0  0  0  0  0  0  0  0  0  0
   -1.0206   -3.3990    1.1299 H   0  0  0  0  0  0  0  0  0  0  0  0
   -2.1958   -4.1587    0.0465 H   0  0  0  0  0  0  0  0  0  0  0  0
  1  2  1  0  0  0  0
  2  3  1  0  0  0  0
  3  4  2  0  0  0  0
  4  5  2  0  0  0  0
  4  6  2  0  0  0  0
  6  7  1  0  0  0  0
  7  8  1  0  0  0  0
  4  9  1  0  0  0  0
  9 10  1  0  0  0  0
 10 11  1  0  0  0  0
 11 12  1  0  0  0  0
 12 13  2  0  0  0  0
 12 14  2  0  0  0  0
 14 15  1  0  0  0  0
 15 16  1  0  0  0  0
 12 17  2  0  0  0  0
 17 18  1  0  0  0  0
 18 19  1  0  0  0  0
  1 20  1  0  0  0  0
  1 21  1  0  0  0  0
  1 22  1  0  0  0  0
  2 23  1  0  0  0  0
  2 24  1  0  0  0  0
  7 25  1  0  0  0  0
  7 26  1  0  0  0  0
  8 27  1  0  0  0  0
  8 28  1  0  0  0  0
  8 29  1  0  0  0  0
 10 30  1  0  0  0  0
 10 31  1  0  0  0  0
 15 32  1  0  0  0  0
 15 33  1  0  0  0  0
 16 34  1  0  0  0  0
 16 35  1  0  0  0  0
 16 36  1  0  0  0  0
 18 37  1  0  0  0  0
 18 38  1  0  0  0  0
 19 39  1  0  0  0  0
 19 40  1  0  0  0  0
 19 41  1  0  0  0  0
M  END
