 xtb: 6.7.1 (edcfbbe)
          04032520383D

 20 21  0     0  0            999 V2000
   -2.7344   -0.2589   -0.0029 C   0  0  0  0  0  0  0  0  0  0  0  0
   -2.3498    1.0887    0.0101 C   0  0  0  0  0  0  0  0  0  0  0  0
   -1.0244    1.4288    0.0099 C   0  0  0  0  0  0  0  0  0  0  0  0
   -0.0147    0.4450   -0.0035 C   0  0  0  0  0  0  0  0  0  0  0  0
   -0.4065   -0.9215   -0.0053 C   0  0  0  0  0  0  0  0  0  0  0  0
   -1.7820   -1.2380   -0.0082 C   0  0  0  0  0  0  0  0  0  0  0  0
    0.5732   -1.9345    0.0013 C   0  0  0  0  0  0  0  0  0  0  0  0
    1.9009   -1.6050    0.0107 C   0  0  0  0  0  0  0  0  0  0  0  0
    2.3017   -0.2690   -0.0004 C   0  0  0  0  0  0  0  0  0  0  0  0
    1.3795    0.7618   -0.0128 C   0  0  0  0  0  0  0  0  0  0  0  0
    1.8115    2.0642    0.0328 N   0  0  0  0  0  0  0  0  0  0  0  0
   -3.7838   -0.5148   -0.0047 H   0  0  0  0  0  0  0  0  0  0  0  0
   -3.1077    1.8581    0.0221 H   0  0  0  0  0  0  0  0  0  0  0  0
   -0.7573    2.4744    0.0342 H   0  0  0  0  0  0  0  0  0  0  0  0
   -2.0669   -2.2808   -0.0121 H   0  0  0  0  0  0  0  0  0  0  0  0
    0.2574   -2.9674    0.0015 H   0  0  0  0  0  0  0  0  0  0  0  0
    2.6547   -2.3791    0.0182 H   0  0  0  0  0  0  0  0  0  0  0  0
    3.3561   -0.0320   -0.0008 H   0  0  0  0  0  0  0  0  0  0  0  0
    2.7834    2.2092   -0.1849 H   0  0  0  0  0  0  0  0  0  0  0  0
    1.1886    2.7753   -0.3085 H   0  0  0  0  0  0  0  0  0  0  0  0
  1  2  4  0  0  0  0
  2  3  2  0  0  0  0
  3  4  4  0  0  0  0
  4  5  4  0  0  0  0
  1  6  2  0  0  0  0
  5  6  4  0  0  0  0
  5  7  4  0  0  0  0
  7  8  2  0  0  0  0
  8  9  4  0  0  0  0
  4 10  4  0  0  0  0
  9 10  4  0  0  0  0
 10 11  1  0  0  0  0
  1 12  1  0  0  0  0
  2 13  1  0  0  0  0
  3 14  1  0  0  0  0
  6 15  1  0  0  0  0
  7 16  1  0  0  0  0
  8 17  1  0  0  0  0
  9 18  1  0  0  0  0
 11 19  1  0  0  0  0
 11 20  1  0  0  0  0
M  END
