 xtb: 6.7.1 (edcfbbe)
          04032519403D

 19 19  0     0  0            999 V2000
   -2.5881    0.5861   -0.0001 C   0  0  0  0  0  0  0  0  0  0  0  0
   -1.2257   -0.0451    0.0003 C   0  0  0  0  0  0  0  0  0  0  0  0
   -1.1495   -1.4350    0.0001 C   0  0  0  0  0  0  0  0  0  0  0  0
    0.0706   -2.0789   -0.0002 C   0  0  0  0  0  0  0  0  0  0  0  0
    1.2383   -1.3378   -0.0001 C   0  0  0  0  0  0  0  0  0  0  0  0
    1.1773    0.0485    0.0001 C   0  0  0  0  0  0  0  0  0  0  0  0
   -0.0564    0.7123    0.0001 C   0  0  0  0  0  0  0  0  0  0  0  0
   -0.0765    2.2145   -0.0003 C   0  0  0  0  0  0  0  0  0  0  0  0
    2.3190    0.8013    0.0002 O   0  0  0  0  0  0  0  0  0  0  0  0
   -3.1468    0.2563    0.8743 H   0  0  0  0  0  0  0  0  0  0  0  0
   -2.5389    1.6685    0.0086 H   0  0  0  0  0  0  0  0  0  0  0  0
   -3.1398    0.2703   -0.8841 H   0  0  0  0  0  0  0  0  0  0  0  0
   -2.0631   -2.0110   -0.0000 H   0  0  0  0  0  0  0  0  0  0  0  0
    0.1190   -3.1574   -0.0004 H   0  0  0  0  0  0  0  0  0  0  0  0
    2.1982   -1.8347   -0.0001 H   0  0  0  0  0  0  0  0  0  0  0  0
   -0.5878    2.5923   -0.8841 H   0  0  0  0  0  0  0  0  0  0  0  0
   -0.5862    2.5929    0.8843 H   0  0  0  0  0  0  0  0  0  0  0  0
    0.9412    2.5935   -0.0012 H   0  0  0  0  0  0  0  0  0  0  0  0
    3.0955    0.2233    0.0004 H   0  0  0  0  0  0  0  0  0  0  0  0
  1  2  1  0  0  0  0
  2  3  4  0  0  0  0
  3  4  4  0  0  0  0
  4  5  4  0  0  0  0
  5  6  4  0  0  0  0
  2  7  4  0  0  0  0
  6  7  4  0  0  0  0
  7  8  1  0  0  0  0
  6  9  1  0  0  0  0
  1 10  1  0  0  0  0
  1 11  1  0  0  0  0
  1 12  1  0  0  0  0
  3 13  1  0  0  0  0
  4 14  1  0  0  0  0
  5 15  1  0  0  0  0
  8 16  1  0  0  0  0
  8 17  1  0  0  0  0
  8 18  1  0  0  0  0
  9 19  1  0  0  0  0
M  END
