 xtb: 6.7.1 (edcfbbe)
          04092505213D

 41 40  0     0  0            999 V2000
    5.3331   -0.9915   -2.0282 C   0  0  0  0  0  0  0  0  0  0  0  0
    3.8385   -1.0876   -1.7971 C   0  0  0  0  0  0  0  0  0  0  0  0
    3.5295   -0.3626   -0.5927 O   0  0  0  0  0  0  0  0  0  0  0  0
    2.0257   -0.0319   -0.1814 P   0  0  0  0  0  0  0  0  0  0  0  0
    1.0132    0.8286   -1.6266 S   0  0  0  0  0  0  0  0  0  0  0  0
    2.2711    0.7413    1.1685 O   0  0  0  0  0  0  0  0  0  0  0  0
    2.3689    2.1778    1.2463 C   0  0  0  0  0  0  0  0  0  0  0  0
    3.5735    2.7037    0.4960 C   0  0  0  0  0  0  0  0  0  0  0  0
    1.2981   -1.8907    0.5201 S   0  0  0  0  0  0  0  0  0  0  0  0
   -0.1210   -2.1469   -0.5998 C   0  0  0  0  0  0  0  0  0  0  0  0
   -1.7334   -2.1805    0.2343 S   0  0  0  0  0  0  0  0  0  0  0  0
   -2.1251   -0.1260    0.4200 P   0  0  0  0  0  0  0  0  0  0  0  0
   -0.8989    1.0124    1.4578 S   0  0  0  0  0  0  0  0  0  0  0  0
   -3.6075   -0.1001    0.9901 O   0  0  0  0  0  0  0  0  0  0  0  0
   -3.9171   -0.1514    2.3967 C   0  0  0  0  0  0  0  0  0  0  0  0
   -5.1857    0.6439    2.6326 C   0  0  0  0  0  0  0  0  0  0  0  0
   -2.3424    0.2552   -1.0949 O   0  0  0  0  0  0  0  0  0  0  0  0
   -2.5500    1.6235   -1.5160 C   0  0  0  0  0  0  0  0  0  0  0  0
   -2.3151    1.6890   -3.0097 C   0  0  0  0  0  0  0  0  0  0  0  0
    5.8650   -1.3993   -1.1736 H   0  0  0  0  0  0  0  0  0  0  0  0
    5.5928   -1.5557   -2.9178 H   0  0  0  0  0  0  0  0  0  0  0  0
    5.6257    0.0458   -2.1624 H   0  0  0  0  0  0  0  0  0  0  0  0
    3.5223   -2.1265   -1.6635 H   0  0  0  0  0  0  0  0  0  0  0  0
    3.2740   -0.6447   -2.6249 H   0  0  0  0  0  0  0  0  0  0  0  0
    1.4396    2.6084    0.8595 H   0  0  0  0  0  0  0  0  0  0  0  0
    2.4340    2.3712    2.3178 H   0  0  0  0  0  0  0  0  0  0  0  0
    3.4599    2.5074   -0.5699 H   0  0  0  0  0  0  0  0  0  0  0  0
    3.6537    3.7749    0.6518 H   0  0  0  0  0  0  0  0  0  0  0  0
    4.4768    2.2139    0.8500 H   0  0  0  0  0  0  0  0  0  0  0  0
   -0.0091   -3.1316   -1.0450 H   0  0  0  0  0  0  0  0  0  0  0  0
   -0.1232   -1.3604   -1.3592 H   0  0  0  0  0  0  0  0  0  0  0  0
   -4.0471   -1.2015    2.6683 H   0  0  0  0  0  0  0  0  0  0  0  0
   -3.0742    0.2668    2.9577 H   0  0  0  0  0  0  0  0  0  0  0  0
   -5.4592    0.5734    3.6802 H   0  0  0  0  0  0  0  0  0  0  0  0
   -5.0280    1.6874    2.3736 H   0  0  0  0  0  0  0  0  0  0  0  0
   -5.9905    0.2456    2.0216 H   0  0  0  0  0  0  0  0  0  0  0  0
   -3.5730    1.9020   -1.2535 H   0  0  0  0  0  0  0  0  0  0  0  0
   -1.8487    2.2651   -0.9718 H   0  0  0  0  0  0  0  0  0  0  0  0
   -1.2800    1.4400   -3.2318 H   0  0  0  0  0  0  0  0  0  0  0  0
   -2.9676    0.9853   -3.5177 H   0  0  0  0  0  0  0  0  0  0  0  0
   -2.5225    2.6953   -3.3580 H   0  0  0  0  0  0  0  0  0  0  0  0
  1  2  1  0  0  0  0
  2  3  1  0  0  0  0
  3  4  2  0  0  0  0
  4  5  2  0  0  0  0
  4  6  2  0  0  0  0
  6  7  1  0  0  0  0
  7  8  1  0  0  0  0
  4  9  1  0  0  0  0
  9 10  1  0  0  0  0
 10 11  1  0  0  0  0
 11 12  1  0  0  0  0
 12 13  2  0  0  0  0
 12 14  2  0  0  0  0
 14 15  1  0  0  0  0
 15 16  1  0  0  0  0
 12 17  2  0  0  0  0
 17 18  1  0  0  0  0
 18 19  1  0  0  0  0
  1 20  1  0  0  0  0
  1 21  1  0  0  0  0
  1 22  1  0  0  0  0
  2 23  1  0  0  0  0
  2 24  1  0  0  0  0
  7 25  1  0  0  0  0
  7 26  1  0  0  0  0
  8 27  1  0  0  0  0
  8 28  1  0  0  0  0
  8 29  1  0  0  0  0
 10 30  1  0  0  0  0
 10 31  1  0  0  0  0
 15 32  1  0  0  0  0
 15 33  1  0  0  0  0
 16 34  1  0  0  0  0
 16 35  1  0  0  0  0
 16 36  1  0  0  0  0
 18 37  1  0  0  0  0
 18 38  1  0  0  0  0
 19 39  1  0  0  0  0
 19 40  1  0  0  0  0
 19 41  1  0  0  0  0
M  END
