 xtb: 6.7.1 (edcfbbe)
          04092505213D

 41 40  0     0  0            999 V2000
    3.8870    0.3765   -2.7227 C   0  0  0  0  0  0  0  0  0  0  0  0
    2.5721    0.3241   -1.9729 C   0  0  0  0  0  0  0  0  0  0  0  0
    2.8096   -0.3334   -0.7133 O   0  0  0  0  0  0  0  0  0  0  0  0
    1.8755   -0.1531    0.5552 P   0  0  0  0  0  0  0  0  0  0  0  0
    1.4193    1.6882    1.0236 S   0  0  0  0  0  0  0  0  0  0  0  0
    2.6977   -0.8230    1.7196 O   0  0  0  0  0  0  0  0  0  0  0  0
    3.3157   -2.1323    1.6356 C   0  0  0  0  0  0  0  0  0  0  0  0
    4.7635   -2.0176    1.2051 C   0  0  0  0  0  0  0  0  0  0  0  0
    0.3362   -1.5847    0.1476 S   0  0  0  0  0  0  0  0  0  0  0  0
   -0.6776   -1.3599    1.6260 C   0  0  0  0  0  0  0  0  0  0  0  0
   -1.5860    0.2253    1.7035 S   0  0  0  0  0  0  0  0  0  0  0  0
   -2.1220    0.4735   -0.3217 P   0  0  0  0  0  0  0  0  0  0  0  0
   -0.8613    0.9965   -1.7404 S   0  0  0  0  0  0  0  0  0  0  0  0
   -3.3341    1.4993   -0.2059 O   0  0  0  0  0  0  0  0  0  0  0  0
   -3.1530    2.9217   -0.2921 C   0  0  0  0  0  0  0  0  0  0  0  0
   -2.3743    3.4653    0.8889 C   0  0  0  0  0  0  0  0  0  0  0  0
   -2.8698   -0.8992   -0.5438 O   0  0  0  0  0  0  0  0  0  0  0  0
   -3.0378   -1.5435   -1.8278 C   0  0  0  0  0  0  0  0  0  0  0  0
   -2.6400   -3.0002   -1.6989 C   0  0  0  0  0  0  0  0  0  0  0  0
    4.2639   -0.6294   -2.8832 H   0  0  0  0  0  0  0  0  0  0  0  0
    3.7262    0.8577   -3.6816 H   0  0  0  0  0  0  0  0  0  0  0  0
    4.6180    0.9451   -2.1544 H   0  0  0  0  0  0  0  0  0  0  0  0
    1.8169   -0.2453   -2.5211 H   0  0  0  0  0  0  0  0  0  0  0  0
    2.1751    1.3262   -1.7803 H   0  0  0  0  0  0  0  0  0  0  0  0
    3.2341   -2.5339    2.6473 H   0  0  0  0  0  0  0  0  0  0  0  0
    2.7432   -2.7516    0.9398 H   0  0  0  0  0  0  0  0  0  0  0  0
    5.3004   -1.3551    1.8784 H   0  0  0  0  0  0  0  0  0  0  0  0
    5.2198   -3.0023    1.2306 H   0  0  0  0  0  0  0  0  0  0  0  0
    4.8268   -1.6180    0.1968 H   0  0  0  0  0  0  0  0  0  0  0  0
   -0.0506   -1.3852    2.5157 H   0  0  0  0  0  0  0  0  0  0  0  0
   -1.3960   -2.1766    1.6247 H   0  0  0  0  0  0  0  0  0  0  0  0
   -2.6361    3.1493   -1.2304 H   0  0  0  0  0  0  0  0  0  0  0  0
   -4.1699    3.3152   -0.3218 H   0  0  0  0  0  0  0  0  0  0  0  0
   -2.8416    3.1626    1.8229 H   0  0  0  0  0  0  0  0  0  0  0  0
   -1.3512    3.0852    0.8730 H   0  0  0  0  0  0  0  0  0  0  0  0
   -2.3416    4.5487    0.8347 H   0  0  0  0  0  0  0  0  0  0  0  0
   -4.0905   -1.4352   -2.0952 H   0  0  0  0  0  0  0  0  0  0  0  0
   -2.4182   -1.0246   -2.5671 H   0  0  0  0  0  0  0  0  0  0  0  0
   -1.5904   -3.0783   -1.4236 H   0  0  0  0  0  0  0  0  0  0  0  0
   -3.2436   -3.4848   -0.9371 H   0  0  0  0  0  0  0  0  0  0  0  0
   -2.7980   -3.4954   -2.6513 H   0  0  0  0  0  0  0  0  0  0  0  0
  1  2  1  0  0  0  0
  2  3  1  0  0  0  0
  3  4  2  0  0  0  0
  4  5  2  0  0  0  0
  4  6  2  0  0  0  0
  6  7  1  0  0  0  0
  7  8  1  0  0  0  0
  4  9  1  0  0  0  0
  9 10  1  0  0  0  0
 10 11  1  0  0  0  0
 11 12  1  0  0  0  0
 12 13  2  0  0  0  0
 12 14  2  0  0  0  0
 14 15  1  0  0  0  0
 15 16  1  0  0  0  0
 12 17  2  0  0  0  0
 17 18  1  0  0  0  0
 18 19  1  0  0  0  0
  1 20  1  0  0  0  0
  1 21  1  0  0  0  0
  1 22  1  0  0  0  0
  2 23  1  0  0  0  0
  2 24  1  0  0  0  0
  7 25  1  0  0  0  0
  7 26  1  0  0  0  0
  8 27  1  0  0  0  0
  8 28  1  0  0  0  0
  8 29  1  0  0  0  0
 10 30  1  0  0  0  0
 10 31  1  0  0  0  0
 15 32  1  0  0  0  0
 15 33  1  0  0  0  0
 16 34  1  0  0  0  0
 16 35  1  0  0  0  0
 16 36  1  0  0  0  0
 18 37  1  0  0  0  0
 18 38  1  0  0  0  0
 19 39  1  0  0  0  0
 19 40  1  0  0  0  0
 19 41  1  0  0  0  0
M  END
