 xtb: 6.7.1 (edcfbbe)
          04092505213D

 41 40  0     0  0            999 V2000
    4.9857   -0.5028   -1.6775 C   0  0  0  0  0  0  0  0  0  0  0  0
    4.7326    0.6501   -0.7288 C   0  0  0  0  0  0  0  0  0  0  0  0
    3.3319    0.9904   -0.6535 O   0  0  0  0  0  0  0  0  0  0  0  0
    2.2768    0.0875    0.0999 P   0  0  0  0  0  0  0  0  0  0  0  0
    2.8874   -0.8571    1.7053 S   0  0  0  0  0  0  0  0  0  0  0  0
    1.7245   -0.8431   -1.0645 O   0  0  0  0  0  0  0  0  0  0  0  0
    1.1199   -2.1348   -0.8719 C   0  0  0  0  0  0  0  0  0  0  0  0
    2.1098   -3.2356   -1.1968 C   0  0  0  0  0  0  0  0  0  0  0  0
    0.8543    1.6334    0.3916 S   0  0  0  0  0  0  0  0  0  0  0  0
    0.0679    0.9620    1.8821 C   0  0  0  0  0  0  0  0  0  0  0  0
   -0.9732   -0.4897    1.5628 S   0  0  0  0  0  0  0  0  0  0  0  0
   -2.2290    0.3016    0.0317 P   0  0  0  0  0  0  0  0  0  0  0  0
   -1.6066    0.0716   -1.8193 S   0  0  0  0  0  0  0  0  0  0  0  0
   -2.4239    1.7645    0.6009 O   0  0  0  0  0  0  0  0  0  0  0  0
   -3.5754    2.5942    0.3223 C   0  0  0  0  0  0  0  0  0  0  0  0
   -3.7140    2.9096   -1.1518 C   0  0  0  0  0  0  0  0  0  0  0  0
   -3.6524   -0.3541    0.2969 O   0  0  0  0  0  0  0  0  0  0  0  0
   -4.0236   -1.6145   -0.2851 C   0  0  0  0  0  0  0  0  0  0  0  0
   -3.2777   -2.7630    0.3616 C   0  0  0  0  0  0  0  0  0  0  0  0
    4.5363   -0.2956   -2.6453 H   0  0  0  0  0  0  0  0  0  0  0  0
    6.0558   -0.6412   -1.7969 H   0  0  0  0  0  0  0  0  0  0  0  0
    4.5518   -1.4166   -1.2763 H   0  0  0  0  0  0  0  0  0  0  0  0
    5.2046    1.5706   -1.0756 H   0  0  0  0  0  0  0  0  0  0  0  0
    5.0840    0.4089    0.2798 H   0  0  0  0  0  0  0  0  0  0  0  0
    0.7716   -2.2262    0.1616 H   0  0  0  0  0  0  0  0  0  0  0  0
    0.2644   -2.1480   -1.5514 H   0  0  0  0  0  0  0  0  0  0  0  0
    2.5092   -3.0971   -2.1975 H   0  0  0  0  0  0  0  0  0  0  0  0
    2.9257   -3.2265   -0.4768 H   0  0  0  0  0  0  0  0  0  0  0  0
    1.6028   -4.1933   -1.1410 H   0  0  0  0  0  0  0  0  0  0  0  0
   -0.5357    1.7597    2.3052 H   0  0  0  0  0  0  0  0  0  0  0  0
    0.8343    0.6261    2.5823 H   0  0  0  0  0  0  0  0  0  0  0  0
   -4.4640    2.0848    0.7007 H   0  0  0  0  0  0  0  0  0  0  0  0
   -3.3826    3.4956    0.9065 H   0  0  0  0  0  0  0  0  0  0  0  0
   -3.9112    1.9986   -1.7154 H   0  0  0  0  0  0  0  0  0  0  0  0
   -4.5372    3.6022   -1.2968 H   0  0  0  0  0  0  0  0  0  0  0  0
   -2.7965    3.3552   -1.5299 H   0  0  0  0  0  0  0  0  0  0  0  0
   -5.0988   -1.6806   -0.1147 H   0  0  0  0  0  0  0  0  0  0  0  0
   -3.8153   -1.5741   -1.3596 H   0  0  0  0  0  0  0  0  0  0  0  0
   -3.6217   -3.7026   -0.0582 H   0  0  0  0  0  0  0  0  0  0  0  0
   -2.2088   -2.6590    0.1726 H   0  0  0  0  0  0  0  0  0  0  0  0
   -3.4392   -2.7635    1.4361 H   0  0  0  0  0  0  0  0  0  0  0  0
  1  2  1  0  0  0  0
  2  3  1  0  0  0  0
  3  4  2  0  0  0  0
  4  5  2  0  0  0  0
  4  6  2  0  0  0  0
  6  7  1  0  0  0  0
  7  8  1  0  0  0  0
  4  9  1  0  0  0  0
  9 10  1  0  0  0  0
 10 11  1  0  0  0  0
 11 12  1  0  0  0  0
 12 13  2  0  0  0  0
 12 14  2  0  0  0  0
 14 15  1  0  0  0  0
 15 16  1  0  0  0  0
 12 17  2  0  0  0  0
 17 18  1  0  0  0  0
 18 19  1  0  0  0  0
  1 20  1  0  0  0  0
  1 21  1  0  0  0  0
  1 22  1  0  0  0  0
  2 23  1  0  0  0  0
  2 24  1  0  0  0  0
  7 25  1  0  0  0  0
  7 26  1  0  0  0  0
  8 27  1  0  0  0  0
  8 28  1  0  0  0  0
  8 29  1  0  0  0  0
 10 30  1  0  0  0  0
 10 31  1  0  0  0  0
 15 32  1  0  0  0  0
 15 33  1  0  0  0  0
 16 34  1  0  0  0  0
 16 35  1  0  0  0  0
 16 36  1  0  0  0  0
 18 37  1  0  0  0  0
 18 38  1  0  0  0  0
 19 39  1  0  0  0  0
 19 40  1  0  0  0  0
 19 41  1  0  0  0  0
M  END
