 xtb: 6.7.1 (edcfbbe)
          04092505213D

 41 40  0     0  0            999 V2000
    4.4517   -2.3232   -0.6670 C   0  0  0  0  0  0  0  0  0  0  0  0
    5.0129   -0.9273   -0.4924 C   0  0  0  0  0  0  0  0  0  0  0  0
    4.0760   -0.0340    0.1388 O   0  0  0  0  0  0  0  0  0  0  0  0
    2.7058    0.3916   -0.5396 P   0  0  0  0  0  0  0  0  0  0  0  0
    2.7490    0.7199   -2.4708 S   0  0  0  0  0  0  0  0  0  0  0  0
    2.3197    1.7017    0.2480 O   0  0  0  0  0  0  0  0  0  0  0  0
    2.6310    1.9972    1.6321 C   0  0  0  0  0  0  0  0  0  0  0  0
    1.9642    1.0401    2.5969 C   0  0  0  0  0  0  0  0  0  0  0  0
    1.3209   -1.1236    0.0389 S   0  0  0  0  0  0  0  0  0  0  0  0
   -0.0237   -0.5654   -1.0226 C   0  0  0  0  0  0  0  0  0  0  0  0
   -0.8373    0.9439   -0.3847 S   0  0  0  0  0  0  0  0  0  0  0  0
   -2.7112    0.1004    0.1290 P   0  0  0  0  0  0  0  0  0  0  0  0
   -4.0534    1.3487    0.8200 S   0  0  0  0  0  0  0  0  0  0  0  0
   -2.3854   -1.2022    0.9853 O   0  0  0  0  0  0  0  0  0  0  0  0
   -1.6786   -1.2715    2.2380 C   0  0  0  0  0  0  0  0  0  0  0  0
   -1.9613   -0.1018    3.1565 C   0  0  0  0  0  0  0  0  0  0  0  0
   -3.0964   -0.5815   -1.2535 O   0  0  0  0  0  0  0  0  0  0  0  0
   -4.4669   -0.8351   -1.6189 C   0  0  0  0  0  0  0  0  0  0  0  0
   -5.0551   -1.9640   -0.7992 C   0  0  0  0  0  0  0  0  0  0  0  0
    5.2385   -2.9820   -1.0201 H   0  0  0  0  0  0  0  0  0  0  0  0
    4.0624   -2.6979    0.2762 H   0  0  0  0  0  0  0  0  0  0  0  0
    3.6474   -2.3123   -1.4010 H   0  0  0  0  0  0  0  0  0  0  0  0
    5.2951   -0.5025   -1.4604 H   0  0  0  0  0  0  0  0  0  0  0  0
    5.8703   -0.9184    0.1821 H   0  0  0  0  0  0  0  0  0  0  0  0
    3.7163    1.9799    1.7481 H   0  0  0  0  0  0  0  0  0  0  0  0
    2.2578    3.0152    1.7546 H   0  0  0  0  0  0  0  0  0  0  0  0
    2.3728    0.0384    2.4826 H   0  0  0  0  0  0  0  0  0  0  0  0
    2.1422    1.3827    3.6114 H   0  0  0  0  0  0  0  0  0  0  0  0
    0.8928    1.0120    2.4146 H   0  0  0  0  0  0  0  0  0  0  0  0
   -0.7536   -1.3671   -1.0872 H   0  0  0  0  0  0  0  0  0  0  0  0
    0.3853   -0.3208   -2.0040 H   0  0  0  0  0  0  0  0  0  0  0  0
   -2.0185   -2.2113    2.6774 H   0  0  0  0  0  0  0  0  0  0  0  0
   -0.6101   -1.3420    2.0111 H   0  0  0  0  0  0  0  0  0  0  0  0
   -1.6519    0.8317    2.6854 H   0  0  0  0  0  0  0  0  0  0  0  0
   -3.0248   -0.0329    3.3742 H   0  0  0  0  0  0  0  0  0  0  0  0
   -1.4124   -0.2323    4.0836 H   0  0  0  0  0  0  0  0  0  0  0  0
   -5.0424    0.0855   -1.4773 H   0  0  0  0  0  0  0  0  0  0  0  0
   -4.4158   -1.0818   -2.6802 H   0  0  0  0  0  0  0  0  0  0  0  0
   -4.4440   -2.8576   -0.8933 H   0  0  0  0  0  0  0  0  0  0  0  0
   -5.0925   -1.6706    0.2492 H   0  0  0  0  0  0  0  0  0  0  0  0
   -6.0622   -2.1744   -1.1448 H   0  0  0  0  0  0  0  0  0  0  0  0
  1  2  1  0  0  0  0
  2  3  1  0  0  0  0
  3  4  2  0  0  0  0
  4  5  2  0  0  0  0
  4  6  2  0  0  0  0
  6  7  1  0  0  0  0
  7  8  1  0  0  0  0
  4  9  1  0  0  0  0
  9 10  1  0  0  0  0
 10 11  1  0  0  0  0
 11 12  1  0  0  0  0
 12 13  2  0  0  0  0
 12 14  2  0  0  0  0
 14 15  1  0  0  0  0
 15 16  1  0  0  0  0
 12 17  2  0  0  0  0
 17 18  1  0  0  0  0
 18 19  1  0  0  0  0
  1 20  1  0  0  0  0
  1 21  1  0  0  0  0
  1 22  1  0  0  0  0
  2 23  1  0  0  0  0
  2 24  1  0  0  0  0
  7 25  1  0  0  0  0
  7 26  1  0  0  0  0
  8 27  1  0  0  0  0
  8 28  1  0  0  0  0
  8 29  1  0  0  0  0
 10 30  1  0  0  0  0
 10 31  1  0  0  0  0
 15 32  1  0  0  0  0
 15 33  1  0  0  0  0
 16 34  1  0  0  0  0
 16 35  1  0  0  0  0
 16 36  1  0  0  0  0
 18 37  1  0  0  0  0
 18 38  1  0  0  0  0
 19 39  1  0  0  0  0
 19 40  1  0  0  0  0
 19 41  1  0  0  0  0
M  END
