  29
 
 C         -2.7087360568        1.3857472696       -1.9842334212
 C         -3.3117970813        0.7946450671       -0.7153750326
 C         -2.4352491412        1.0495515212        0.5213905575
 H         -2.2821517710        2.1271248846        0.6141434723
 C         -3.1262416075        0.5466493497        1.7906213254
 C         -1.0863694820        0.4010433707        0.3423112210
 C         -0.9438188293       -0.9648820758        0.3527069584
 C          0.3100115372       -1.5640724667        0.1681295084
 C          1.4363399545       -0.7930742557       -0.0295624202
 C          1.3159299678        0.5952189384       -0.0485896745
 C          0.0547469637        1.2237104758        0.1327565091
 O         -0.1238592569        2.5231404938        0.1178152490
 N          2.5009827791        1.3462717342       -0.2565675708
 O          3.5563977885        0.7575535807       -0.3898174500
 O          2.4202152291        2.5723318240       -0.2939782530
 N          0.4205111575       -2.9841257851        0.1835982529
 O          1.5225939617       -3.4810823312        0.0206055982
 O         -0.5925970748       -3.6391486683        0.3583687836
 H         -3.3892087017        1.2531520707       -2.8213685059
 H         -2.5221977371        2.4494709935       -1.8586171839
 H         -1.7680704532        0.8979922342       -2.2315299617
 H         -4.2891460321        1.2449787665       -0.5383722663
 H         -3.4559663650       -0.2790633493       -0.8450475353
 H         -2.4775710098        0.6729635456        2.6533300263
 H         -4.0368852571        1.1144069156        1.9587578110
 H         -3.3920901613       -0.5029955423        1.7067798081
 H         -1.7968017059       -1.6084343793        0.5013227184
 H          2.4041348866       -1.2512625567       -0.1713260007
 H          0.7201729428        3.0143899679       -0.0353145085
          29
        -53.55967234
 C         -2.9770013104        0.6339717499       -1.9928655933
 C         -3.3801505459       -0.2146022874       -0.7925097046
 C         -2.6399926710        0.1998317850        0.4889038897
 H         -2.8358635489        1.2595063756        0.6674470312
 C         -3.1471775163       -0.5964634875        1.6933275855
 C         -1.1532775475        0.0236775200        0.3128138444
 C         -0.5914586967       -1.2242216874        0.1978859263
 C          0.7903364784       -1.3835876248        0.0235481806
 C          1.6232793464       -0.2860989240       -0.0379684970
 C          1.0756208072        0.9908085686        0.0711090050
 C         -0.3221729680        1.1758919977        0.2454767531
 O         -0.8971467760        2.3504820420        0.3475216200
 N          1.9707762604        2.0886938417        0.0005547841
 O          3.1591402765        1.8722907612       -0.1384451684
 O          1.5124275836        3.2264247384        0.0835436117
 N          1.3389475993       -2.6932088548       -0.0911506782
 O          2.5441347645       -2.8049582933       -0.2430843338
 O          0.5780835112       -3.6437887612       -0.0327864782
 H         -3.5766145669        0.3690533989       -2.8597892347
 H         -3.1271521933        1.6899542924       -1.7816393845
 H         -1.9297985502        0.4791011908       -2.2445064426
 H         -4.4509016905       -0.1041856741       -0.6175344520
 H         -3.1824333307       -1.2661837158       -1.0053953629
 H         -3.0519045868       -1.6656518818        1.5282119464
 H         -2.5885575166       -0.3320968310        2.5872946324
 H         -4.1960218973       -0.3711933722        1.8637500248
 H         -1.2037452920       -2.1115763726        0.2378182930
 H          2.6885150171       -0.4053119211       -0.1709310197
 H         -0.2452177756        3.0912368626        0.2891800338
