 xtb: 6.7.1 (edcfbbe)
          04092507313D

 38 37  0     0  0            999 V2000
    4.1019   -3.1884    0.7441 C   0  0  0  0  0  0  0  0  0  0  0  0
    2.9270   -2.2545    0.9527 C   0  0  0  0  0  0  0  0  0  0  0  0
    2.4984   -1.7817   -0.3391 O   0  0  0  0  0  0  0  0  0  0  0  0
    1.6756   -0.7704   -0.3889 C   0  0  0  0  0  0  0  0  0  0  0  0
    1.2826   -0.1424    0.5831 O   0  0  0  0  0  0  0  0  0  0  0  0
    1.2885   -0.3947   -1.8013 C   0  0  0  0  0  0  0  0  0  0  0  0
    0.4418    0.8698   -1.7599 C   0  0  0  0  0  0  0  0  0  0  0  0
    0.3959    1.3267   -2.7529 H   0  0  0  0  0  0  0  0  0  0  0  0
    1.0783    1.8789   -0.8093 C   0  0  0  0  0  0  0  0  0  0  0  0
    2.2688    2.1097   -0.8435 O   0  0  0  0  0  0  0  0  0  0  0  0
    0.2087    2.4963   -0.0478 O   0  0  0  0  0  0  0  0  0  0  0  0
    0.6831    3.5074    0.8660 C   0  0  0  0  0  0  0  0  0  0  0  0
   -0.2865    4.6749    0.8608 C   0  0  0  0  0  0  0  0  0  0  0  0
   -1.3146    0.5743   -1.3757 S   0  0  0  0  0  0  0  0  0  0  0  0
   -1.4720   -0.7314    0.2958 P   0  0  0  0  0  0  0  0  0  0  0  0
   -0.6703   -2.5205    0.2248 S   0  0  0  0  0  0  0  0  0  0  0  0
   -1.2197    0.0504    1.6448 O   0  0  0  0  0  0  0  0  0  0  0  0
   -1.9807    1.2240    1.9919 C   0  0  0  0  0  0  0  0  0  0  0  0
   -3.0725   -0.8143    0.3280 O   0  0  0  0  0  0  0  0  0  0  0  0
   -3.8078   -1.5654   -0.6433 C   0  0  0  0  0  0  0  0  0  0  0  0
    4.9231   -2.6562    0.2731 H   0  0  0  0  0  0  0  0  0  0  0  0
    4.4262   -3.5735    1.7049 H   0  0  0  0  0  0  0  0  0  0  0  0
    3.8038   -4.0151    0.1067 H   0  0  0  0  0  0  0  0  0  0  0  0
    3.1889   -1.3877    1.5682 H   0  0  0  0  0  0  0  0  0  0  0  0
    2.0765   -2.7670    1.4150 H   0  0  0  0  0  0  0  0  0  0  0  0
    0.7577   -1.2262   -2.2677 H   0  0  0  0  0  0  0  0  0  0  0  0
    2.2078   -0.2140   -2.3612 H   0  0  0  0  0  0  0  0  0  0  0  0
    0.7483    3.0374    1.8510 H   0  0  0  0  0  0  0  0  0  0  0  0
    1.6854    3.8092    0.5481 H   0  0  0  0  0  0  0  0  0  0  0  0
   -1.2754    4.3497    1.1695 H   0  0  0  0  0  0  0  0  0  0  0  0
    0.0712    5.4310    1.5518 H   0  0  0  0  0  0  0  0  0  0  0  0
   -0.3517    5.1049   -0.1347 H   0  0  0  0  0  0  0  0  0  0  0  0
   -1.4911    1.6274    2.8745 H   0  0  0  0  0  0  0  0  0  0  0  0
   -3.0085    0.9411    2.2118 H   0  0  0  0  0  0  0  0  0  0  0  0
   -1.9544    1.9397    1.1708 H   0  0  0  0  0  0  0  0  0  0  0  0
   -3.8568   -1.0101   -1.5788 H   0  0  0  0  0  0  0  0  0  0  0  0
   -4.8006   -1.6981   -0.2209 H   0  0  0  0  0  0  0  0  0  0  0  0
   -3.3315   -2.5336   -0.8066 H   0  0  0  0  0  0  0  0  0  0  0  0
  1  2  1  0  0  0  0
  2  3  1  0  0  0  0
  3  4  4  0  0  0  0
  4  5  2  0  0  0  0
  4  6  1  0  0  0  0
  6  7  1  0  0  0  0
  7  8  1  0  0  0  0
  7  9  1  0  0  0  0
  9 10  2  0  0  0  0
  9 11  4  0  0  0  0
 11 12  1  0  0  0  0
 12 13  1  0  0  0  0
  7 14  1  0  0  0  0
 14 15  1  0  0  0  0
 15 16  2  0  0  0  0
 15 17  2  0  0  0  0
 17 18  1  0  0  0  0
 15 19  1  0  0  0  0
 19 20  1  0  0  0  0
  1 21  1  0  0  0  0
  1 22  1  0  0  0  0
  1 23  1  0  0  0  0
  2 24  1  0  0  0  0
  2 25  1  0  0  0  0
  6 26  1  0  0  0  0
  6 27  1  0  0  0  0
 12 28  1  0  0  0  0
 12 29  1  0  0  0  0
 13 30  1  0  0  0  0
 13 31  1  0  0  0  0
 13 32  1  0  0  0  0
 18 33  1  0  0  0  0
 18 34  1  0  0  0  0
 18 35  1  0  0  0  0
 20 36  1  0  0  0  0
 20 37  1  0  0  0  0
 20 38  1  0  0  0  0
M  END
