 xtb: 6.7.1 (edcfbbe)
          04092505213D

 41 40  0     0  0            999 V2000
    3.0610   -1.3700   -2.6004 C   0  0  0  0  0  0  0  0  0  0  0  0
    3.1862   -0.2649   -1.5713 C   0  0  0  0  0  0  0  0  0  0  0  0
    2.8354   -0.7823   -0.2735 O   0  0  0  0  0  0  0  0  0  0  0  0
    1.8771   -0.1069    0.8012 P   0  0  0  0  0  0  0  0  0  0  0  0
    1.2407    1.6996    0.3289 S   0  0  0  0  0  0  0  0  0  0  0  0
    2.6940   -0.1374    2.1649 O   0  0  0  0  0  0  0  0  0  0  0  0
    3.5008    0.9643    2.6179 C   0  0  0  0  0  0  0  0  0  0  0  0
    4.7225    1.1635    1.7435 C   0  0  0  0  0  0  0  0  0  0  0  0
    0.6382   -1.6870    1.4100 S   0  0  0  0  0  0  0  0  0  0  0  0
   -0.1579   -2.1829   -0.1661 C   0  0  0  0  0  0  0  0  0  0  0  0
   -0.2259   -0.8762   -1.4182 S   0  0  0  0  0  0  0  0  0  0  0  0
   -1.8106    0.2939   -0.6505 P   0  0  0  0  0  0  0  0  0  0  0  0
   -2.0953    2.0215   -1.5221 S   0  0  0  0  0  0  0  0  0  0  0  0
   -1.5293    0.2603    0.9054 O   0  0  0  0  0  0  0  0  0  0  0  0
   -2.0067    1.2963    1.7858 C   0  0  0  0  0  0  0  0  0  0  0  0
   -3.5138    1.2642    1.9111 C   0  0  0  0  0  0  0  0  0  0  0  0
   -3.0550   -0.7014   -0.7287 O   0  0  0  0  0  0  0  0  0  0  0  0
   -3.7826   -0.9049   -1.9542 C   0  0  0  0  0  0  0  0  0  0  0  0
   -5.1359   -1.4895   -1.6025 C   0  0  0  0  0  0  0  0  0  0  0  0
    3.4259   -1.0041   -3.5544 H   0  0  0  0  0  0  0  0  0  0  0  0
    3.6523   -2.2274   -2.2926 H   0  0  0  0  0  0  0  0  0  0  0  0
    2.0215   -1.6699   -2.7096 H   0  0  0  0  0  0  0  0  0  0  0  0
    2.5341    0.5832   -1.8068 H   0  0  0  0  0  0  0  0  0  0  0  0
    4.2183    0.0864   -1.4978 H   0  0  0  0  0  0  0  0  0  0  0  0
    2.8834    1.8688    2.6271 H   0  0  0  0  0  0  0  0  0  0  0  0
    3.7722    0.6887    3.6379 H   0  0  0  0  0  0  0  0  0  0  0  0
    4.4141    1.4965    0.7527 H   0  0  0  0  0  0  0  0  0  0  0  0
    5.3632    1.9204    2.1850 H   0  0  0  0  0  0  0  0  0  0  0  0
    5.2727    0.2306    1.6512 H   0  0  0  0  0  0  0  0  0  0  0  0
   -1.1663   -2.5073    0.0830 H   0  0  0  0  0  0  0  0  0  0  0  0
    0.4216   -2.9900   -0.6089 H   0  0  0  0  0  0  0  0  0  0  0  0
   -1.5097    1.0794    2.7332 H   0  0  0  0  0  0  0  0  0  0  0  0
   -1.6606    2.2626    1.4033 H   0  0  0  0  0  0  0  0  0  0  0  0
   -3.8418    0.2766    2.2242 H   0  0  0  0  0  0  0  0  0  0  0  0
   -3.8292    2.0027    2.6413 H   0  0  0  0  0  0  0  0  0  0  0  0
   -3.9650    1.5016    0.9481 H   0  0  0  0  0  0  0  0  0  0  0  0
   -3.8800    0.0593   -2.4647 H   0  0  0  0  0  0  0  0  0  0  0  0
   -3.2052   -1.5841   -2.5880 H   0  0  0  0  0  0  0  0  0  0  0  0
   -5.6936   -0.7948   -0.9812 H   0  0  0  0  0  0  0  0  0  0  0  0
   -5.6900   -1.6754   -2.5166 H   0  0  0  0  0  0  0  0  0  0  0  0
   -5.0094   -2.4226   -1.0615 H   0  0  0  0  0  0  0  0  0  0  0  0
  1  2  1  0  0  0  0
  2  3  1  0  0  0  0
  3  4  2  0  0  0  0
  4  5  2  0  0  0  0
  4  6  2  0  0  0  0
  6  7  1  0  0  0  0
  7  8  1  0  0  0  0
  4  9  1  0  0  0  0
  9 10  1  0  0  0  0
 10 11  1  0  0  0  0
 11 12  1  0  0  0  0
 12 13  2  0  0  0  0
 12 14  2  0  0  0  0
 14 15  1  0  0  0  0
 15 16  1  0  0  0  0
 12 17  2  0  0  0  0
 17 18  1  0  0  0  0
 18 19  1  0  0  0  0
  1 20  1  0  0  0  0
  1 21  1  0  0  0  0
  1 22  1  0  0  0  0
  2 23  1  0  0  0  0
  2 24  1  0  0  0  0
  7 25  1  0  0  0  0
  7 26  1  0  0  0  0
  8 27  1  0  0  0  0
  8 28  1  0  0  0  0
  8 29  1  0  0  0  0
 10 30  1  0  0  0  0
 10 31  1  0  0  0  0
 15 32  1  0  0  0  0
 15 33  1  0  0  0  0
 16 34  1  0  0  0  0
 16 35  1  0  0  0  0
 16 36  1  0  0  0  0
 18 37  1  0  0  0  0
 18 38  1  0  0  0  0
 19 39  1  0  0  0  0
 19 40  1  0  0  0  0
 19 41  1  0  0  0  0
M  END
