 xtb: 6.7.1 (edcfbbe)
          04092505213D

 41 40  0     0  0            999 V2000
    2.4011   -2.8367    1.7344 C   0  0  0  0  0  0  0  0  0  0  0  0
    1.5490   -1.9752    0.8233 C   0  0  0  0  0  0  0  0  0  0  0  0
    2.0011   -0.6149    0.9215 O   0  0  0  0  0  0  0  0  0  0  0  0
    2.3753    0.3163   -0.3162 P   0  0  0  0  0  0  0  0  0  0  0  0
    2.9815   -0.6285   -1.9143 S   0  0  0  0  0  0  0  0  0  0  0  0
    3.4825    1.2711    0.2620 O   0  0  0  0  0  0  0  0  0  0  0  0
    3.2949    2.2702    1.2941 C   0  0  0  0  0  0  0  0  0  0  0  0
    3.3847    1.6663    2.6796 C   0  0  0  0  0  0  0  0  0  0  0  0
    0.7015    1.6336   -0.5721 S   0  0  0  0  0  0  0  0  0  0  0  0
   -0.0434    0.7878   -1.9793 C   0  0  0  0  0  0  0  0  0  0  0  0
   -0.6987   -0.8519   -1.5561 S   0  0  0  0  0  0  0  0  0  0  0  0
   -2.1682   -0.1825   -0.1974 P   0  0  0  0  0  0  0  0  0  0  0  0
   -3.0842    1.4994   -0.6294 S   0  0  0  0  0  0  0  0  0  0  0  0
   -1.3787   -0.2364    1.1700 O   0  0  0  0  0  0  0  0  0  0  0  0
   -1.7971    0.4923    2.3499 C   0  0  0  0  0  0  0  0  0  0  0  0
   -0.5668    1.0617    3.0253 C   0  0  0  0  0  0  0  0  0  0  0  0
   -3.1306   -1.4374   -0.0428 O   0  0  0  0  0  0  0  0  0  0  0  0
   -4.1866   -1.7228   -0.9823 C   0  0  0  0  0  0  0  0  0  0  0  0
   -5.2601   -2.5088   -0.2564 C   0  0  0  0  0  0  0  0  0  0  0  0
    2.3454   -2.4738    2.7567 H   0  0  0  0  0  0  0  0  0  0  0  0
    2.0400   -3.8592    1.6952 H   0  0  0  0  0  0  0  0  0  0  0  0
    3.4371   -2.8109    1.4060 H   0  0  0  0  0  0  0  0  0  0  0  0
    0.4980   -1.9873    1.1239 H   0  0  0  0  0  0  0  0  0  0  0  0
    1.6298   -2.3073   -0.2174 H   0  0  0  0  0  0  0  0  0  0  0  0
    4.1024    2.9820    1.1140 H   0  0  0  0  0  0  0  0  0  0  0  0
    2.3310    2.7611    1.1330 H   0  0  0  0  0  0  0  0  0  0  0  0
    2.5814    0.9516    2.8323 H   0  0  0  0  0  0  0  0  0  0  0  0
    4.3368    1.1574    2.8025 H   0  0  0  0  0  0  0  0  0  0  0  0
    3.3035    2.4589    3.4168 H   0  0  0  0  0  0  0  0  0  0  0  0
    0.7055    0.6272   -2.7543 H   0  0  0  0  0  0  0  0  0  0  0  0
   -0.8552    1.4251   -2.3286 H   0  0  0  0  0  0  0  0  0  0  0  0
   -2.4879    1.2862    2.0468 H   0  0  0  0  0  0  0  0  0  0  0  0
   -2.3193   -0.2177    2.9944 H   0  0  0  0  0  0  0  0  0  0  0  0
   -0.8634    1.5666    3.9389 H   0  0  0  0  0  0  0  0  0  0  0  0
    0.1279    0.2614    3.2647 H   0  0  0  0  0  0  0  0  0  0  0  0
   -0.0754    1.7730    2.3659 H   0  0  0  0  0  0  0  0  0  0  0  0
   -4.5772   -0.7752   -1.3684 H   0  0  0  0  0  0  0  0  0  0  0  0
   -3.7573   -2.2979   -1.8065 H   0  0  0  0  0  0  0  0  0  0  0  0
   -4.8369   -3.4203    0.1554 H   0  0  0  0  0  0  0  0  0  0  0  0
   -5.6757   -1.9150    0.5529 H   0  0  0  0  0  0  0  0  0  0  0  0
   -6.0496   -2.7622   -0.9562 H   0  0  0  0  0  0  0  0  0  0  0  0
  1  2  1  0  0  0  0
  2  3  1  0  0  0  0
  3  4  2  0  0  0  0
  4  5  2  0  0  0  0
  4  6  2  0  0  0  0
  6  7  1  0  0  0  0
  7  8  1  0  0  0  0
  4  9  1  0  0  0  0
  9 10  1  0  0  0  0
 10 11  1  0  0  0  0
 11 12  1  0  0  0  0
 12 13  2  0  0  0  0
 12 14  2  0  0  0  0
 14 15  1  0  0  0  0
 15 16  1  0  0  0  0
 12 17  2  0  0  0  0
 17 18  1  0  0  0  0
 18 19  1  0  0  0  0
  1 20  1  0  0  0  0
  1 21  1  0  0  0  0
  1 22  1  0  0  0  0
  2 23  1  0  0  0  0
  2 24  1  0  0  0  0
  7 25  1  0  0  0  0
  7 26  1  0  0  0  0
  8 27  1  0  0  0  0
  8 28  1  0  0  0  0
  8 29  1  0  0  0  0
 10 30  1  0  0  0  0
 10 31  1  0  0  0  0
 15 32  1  0  0  0  0
 15 33  1  0  0  0  0
 16 34  1  0  0  0  0
 16 35  1  0  0  0  0
 16 36  1  0  0  0  0
 18 37  1  0  0  0  0
 18 38  1  0  0  0  0
 19 39  1  0  0  0  0
 19 40  1  0  0  0  0
 19 41  1  0  0  0  0
M  END
