41
 xtb: 6.7.1 (edcfbbe)
C            2.87881143441353       -1.28042060360822        3.18799869246956
C            1.60478054810405       -1.39293028966490        2.38834750382734
O            1.48660386919258       -0.31080968526449        1.39966000018378
P            2.34049677934380       -0.29538956245654        0.04186941405406
S            2.82967141079056       -2.01552541665153       -0.72803217967551
O            3.54428792637821        0.69109142873553        0.46317080050260
C            4.68503772149945        0.90521661887442       -0.43999591791741
C            5.60112348106964        1.89529835264532        0.23032715216156
S            1.18710142041868        0.99419455300213       -1.18206898851045
C            0.11894348922008       -0.21497034937156       -2.05757137427562
S           -1.03319247995148       -1.21619323549988       -1.03847195096235
P           -2.30446221583931        0.28665327934800       -0.25542609310712
S           -2.68709772023049        1.79490105699248       -1.42547650318029
O           -1.61432709496933        0.60549060493239        1.15824909208326
C           -1.87468109431265        1.85836756593076        1.88572278801655
C           -3.24571859597038        1.86665641045974        2.51473537552203
O           -3.55742146236864       -0.60635919962138        0.22712180380768
C           -4.58539871957370       -1.03544530047725       -0.73245224039734
C           -5.59017669361222       -1.85575971610388        0.03354848521752
H            3.76131742616010       -1.44457414029580        2.56231385489804
H            2.95671872245782       -0.29926897539036        3.66487388670684
H            2.86983981208097       -2.04595834429399        3.97079669805696
H            0.71871976486950       -1.26099617053474        3.01262266500477
H            1.53147749080520       -2.34927411277584        1.86147687261112
H            5.17447768367387       -0.05952896470193       -0.60307626119499
H            4.30704403067884        1.28464102344949       -1.39550897180786
H            5.95850944623491        1.50863410927076        1.18914439106937
H            6.46657496940620        2.06967850902736       -0.41613440349852
H            5.09451325663641        2.85042400437669        0.39508027847323
H            0.74378062017207       -0.94189145269708       -2.58461155307247
H           -0.44990513629625        0.37366136414962       -2.78322105153317
H           -1.08353069384190        1.88188724106275        2.63770392407021
H           -1.73328213806619        2.69296972108396        1.19221411536159
H           -3.38648188367757        0.99379362990404        3.15844469146212
H           -3.34265609470188        2.76813758376451        3.12863137073259
H           -4.03609487282096        1.88441547989299        1.75847235948233
H           -5.03699221124688       -0.14008319782442       -1.16974044476455
H           -4.10210711315433       -1.61969560370604       -1.52284543713303
H           -5.12202410820148       -2.74149949416458        0.47193292891535
H           -6.05130967004437       -1.26295368244751        0.82867738981738
H           -6.37625715173182       -2.18404167349450       -0.65314501010596
