 xtb: 6.7.1 (edcfbbe)
          04092505213D

 41 40  0     0  0            999 V2000
    3.8418   -1.7107   -2.4201 C   0  0  0  0  0  0  0  0  0  0  0  0
    4.1449   -1.6059   -0.9381 C   0  0  0  0  0  0  0  0  0  0  0  0
    3.9269   -0.2809   -0.4240 O   0  0  0  0  0  0  0  0  0  0  0  0
    2.5119    0.4231   -0.3164 P   0  0  0  0  0  0  0  0  0  0  0  0
    1.8102    1.2510   -1.9584 S   0  0  0  0  0  0  0  0  0  0  0  0
    2.9628    1.4282    0.8148 O   0  0  0  0  0  0  0  0  0  0  0  0
    2.1750    2.5341    1.2857 C   0  0  0  0  0  0  0  0  0  0  0  0
    1.5278    2.1904    2.6129 C   0  0  0  0  0  0  0  0  0  0  0  0
    1.2577   -1.0207    0.6069 S   0  0  0  0  0  0  0  0  0  0  0  0
    0.1066   -1.3633   -0.7784 C   0  0  0  0  0  0  0  0  0  0  0  0
   -1.5394   -1.8038   -0.1967 S   0  0  0  0  0  0  0  0  0  0  0  0
   -2.3488    0.1374    0.1876 P   0  0  0  0  0  0  0  0  0  0  0  0
   -1.1206    1.6567    0.2097 S   0  0  0  0  0  0  0  0  0  0  0  0
   -3.2121   -0.0612    1.5116 O   0  0  0  0  0  0  0  0  0  0  0  0
   -2.6600    0.0885    2.8313 C   0  0  0  0  0  0  0  0  0  0  0  0
   -1.7273   -1.0481    3.1994 C   0  0  0  0  0  0  0  0  0  0  0  0
   -3.4763    0.3251   -0.8971 O   0  0  0  0  0  0  0  0  0  0  0  0
   -4.5157   -0.6621   -1.1324 C   0  0  0  0  0  0  0  0  0  0  0  0
   -4.3344   -1.2852   -2.5017 C   0  0  0  0  0  0  0  0  0  0  0  0
    4.0758   -2.7122   -2.7667 H   0  0  0  0  0  0  0  0  0  0  0  0
    2.7897   -1.5013   -2.6085 H   0  0  0  0  0  0  0  0  0  0  0  0
    4.4340   -0.9886   -2.9766 H   0  0  0  0  0  0  0  0  0  0  0  0
    5.2019   -1.7881   -0.7363 H   0  0  0  0  0  0  0  0  0  0  0  0
    3.5359   -2.3095   -0.3615 H   0  0  0  0  0  0  0  0  0  0  0  0
    2.8824    3.3591    1.3911 H   0  0  0  0  0  0  0  0  0  0  0  0
    1.4213    2.7977    0.5355 H   0  0  0  0  0  0  0  0  0  0  0  0
    0.7943    1.3994    2.4775 H   0  0  0  0  0  0  0  0  0  0  0  0
    2.2836    1.8591    3.3190 H   0  0  0  0  0  0  0  0  0  0  0  0
    1.0249    3.0706    2.9996 H   0  0  0  0  0  0  0  0  0  0  0  0
    0.4654   -2.2297   -1.3282 H   0  0  0  0  0  0  0  0  0  0  0  0
    0.0667   -0.4725   -1.4112 H   0  0  0  0  0  0  0  0  0  0  0  0
   -2.1405    1.0510    2.8801 H   0  0  0  0  0  0  0  0  0  0  0  0
   -3.5384    0.1103    3.4780 H   0  0  0  0  0  0  0  0  0  0  0  0
   -1.4502   -0.9558    4.2446 H   0  0  0  0  0  0  0  0  0  0  0  0
   -2.2167   -2.0053    3.0398 H   0  0  0  0  0  0  0  0  0  0  0  0
   -0.8220   -1.0137    2.5946 H   0  0  0  0  0  0  0  0  0  0  0  0
   -4.4796   -1.4157   -0.3429 H   0  0  0  0  0  0  0  0  0  0  0  0
   -5.4525   -0.1067   -1.0678 H   0  0  0  0  0  0  0  0  0  0  0  0
   -4.2947   -0.5087   -3.2608 H   0  0  0  0  0  0  0  0  0  0  0  0
   -3.4135   -1.8617   -2.5388 H   0  0  0  0  0  0  0  0  0  0  0  0
   -5.1734   -1.9429   -2.7053 H   0  0  0  0  0  0  0  0  0  0  0  0
  1  2  1  0  0  0  0
  2  3  1  0  0  0  0
  3  4  2  0  0  0  0
  4  5  2  0  0  0  0
  4  6  2  0  0  0  0
  6  7  1  0  0  0  0
  7  8  1  0  0  0  0
  4  9  1  0  0  0  0
  9 10  1  0  0  0  0
 10 11  1  0  0  0  0
 11 12  1  0  0  0  0
 12 13  2  0  0  0  0
 12 14  2  0  0  0  0
 14 15  1  0  0  0  0
 15 16  1  0  0  0  0
 12 17  2  0  0  0  0
 17 18  1  0  0  0  0
 18 19  1  0  0  0  0
  1 20  1  0  0  0  0
  1 21  1  0  0  0  0
  1 22  1  0  0  0  0
  2 23  1  0  0  0  0
  2 24  1  0  0  0  0
  7 25  1  0  0  0  0
  7 26  1  0  0  0  0
  8 27  1  0  0  0  0
  8 28  1  0  0  0  0
  8 29  1  0  0  0  0
 10 30  1  0  0  0  0
 10 31  1  0  0  0  0
 15 32  1  0  0  0  0
 15 33  1  0  0  0  0
 16 34  1  0  0  0  0
 16 35  1  0  0  0  0
 16 36  1  0  0  0  0
 18 37  1  0  0  0  0
 18 38  1  0  0  0  0
 19 39  1  0  0  0  0
 19 40  1  0  0  0  0
 19 41  1  0  0  0  0
M  END
