 xtb: 6.7.1 (edcfbbe)
          04092505213D

 41 40  0     0  0            999 V2000
    4.4053   -1.1286   -2.2737 C   0  0  0  0  0  0  0  0  0  0  0  0
    2.9250   -0.9798   -1.9887 C   0  0  0  0  0  0  0  0  0  0  0  0
    2.6790    0.1000   -1.0548 O   0  0  0  0  0  0  0  0  0  0  0  0
    2.5771   -0.0676    0.5092 P   0  0  0  0  0  0  0  0  0  0  0  0
    2.1380    1.6222    1.3893 S   0  0  0  0  0  0  0  0  0  0  0  0
    3.9835   -0.7022    0.8920 O   0  0  0  0  0  0  0  0  0  0  0  0
    4.5005   -0.6969    2.2360 C   0  0  0  0  0  0  0  0  0  0  0  0
    3.6675   -1.5394    3.1798 C   0  0  0  0  0  0  0  0  0  0  0  0
    1.1936   -1.6618    0.8192 S   0  0  0  0  0  0  0  0  0  0  0  0
   -0.2800   -0.6360    0.7819 C   0  0  0  0  0  0  0  0  0  0  0  0
   -0.5541    0.0080   -0.9146 S   0  0  0  0  0  0  0  0  0  0  0  0
   -2.5486    0.6252   -0.6610 P   0  0  0  0  0  0  0  0  0  0  0  0
   -3.3785    1.3620   -2.2757 S   0  0  0  0  0  0  0  0  0  0  0  0
   -2.3368    1.5628    0.6016 O   0  0  0  0  0  0  0  0  0  0  0  0
   -3.3794    1.9323    1.5320 C   0  0  0  0  0  0  0  0  0  0  0  0
   -4.5211    2.6674    0.8623 C   0  0  0  0  0  0  0  0  0  0  0  0
   -3.3347   -0.6024   -0.0060 O   0  0  0  0  0  0  0  0  0  0  0  0
   -4.0208   -1.5724   -0.8158 C   0  0  0  0  0  0  0  0  0  0  0  0
   -3.0526   -2.4842   -1.5423 C   0  0  0  0  0  0  0  0  0  0  0  0
    4.8130   -0.1864   -2.6299 H   0  0  0  0  0  0  0  0  0  0  0  0
    4.9361   -1.4226   -1.3723 H   0  0  0  0  0  0  0  0  0  0  0  0
    4.5429   -1.8891   -3.0359 H   0  0  0  0  0  0  0  0  0  0  0  0
    2.5056   -1.9035   -1.5802 H   0  0  0  0  0  0  0  0  0  0  0  0
    2.3695   -0.6887   -2.8822 H   0  0  0  0  0  0  0  0  0  0  0  0
    5.5103   -1.0947    2.1258 H   0  0  0  0  0  0  0  0  0  0  0  0
    4.5454    0.3400    2.5825 H   0  0  0  0  0  0  0  0  0  0  0  0
    4.1795   -1.6175    4.1336 H   0  0  0  0  0  0  0  0  0  0  0  0
    2.6971   -1.0724    3.3388 H   0  0  0  0  0  0  0  0  0  0  0  0
    3.5163   -2.5337    2.7674 H   0  0  0  0  0  0  0  0  0  0  0  0
   -0.1443    0.2100    1.4571 H   0  0  0  0  0  0  0  0  0  0  0  0
   -1.1218   -1.2587    1.0738 H   0  0  0  0  0  0  0  0  0  0  0  0
   -3.7355    1.0248    2.0245 H   0  0  0  0  0  0  0  0  0  0  0  0
   -2.8604    2.5687    2.2511 H   0  0  0  0  0  0  0  0  0  0  0  0
   -5.2324    2.9908    1.6158 H   0  0  0  0  0  0  0  0  0  0  0  0
   -4.1479    3.5354    0.3233 H   0  0  0  0  0  0  0  0  0  0  0  0
   -5.0254    2.0136    0.1520 H   0  0  0  0  0  0  0  0  0  0  0  0
   -4.6404   -2.1208   -0.1050 H   0  0  0  0  0  0  0  0  0  0  0  0
   -4.6535   -1.0387   -1.5321 H   0  0  0  0  0  0  0  0  0  0  0  0
   -2.4629   -1.9046   -2.2521 H   0  0  0  0  0  0  0  0  0  0  0  0
   -2.3802   -2.9710   -0.8403 H   0  0  0  0  0  0  0  0  0  0  0  0
   -3.6112   -3.2397   -2.0852 H   0  0  0  0  0  0  0  0  0  0  0  0
  1  2  1  0  0  0  0
  2  3  1  0  0  0  0
  3  4  2  0  0  0  0
  4  5  2  0  0  0  0
  4  6  2  0  0  0  0
  6  7  1  0  0  0  0
  7  8  1  0  0  0  0
  4  9  1  0  0  0  0
  9 10  1  0  0  0  0
 10 11  1  0  0  0  0
 11 12  1  0  0  0  0
 12 13  2  0  0  0  0
 12 14  2  0  0  0  0
 14 15  1  0  0  0  0
 15 16  1  0  0  0  0
 12 17  2  0  0  0  0
 17 18  1  0  0  0  0
 18 19  1  0  0  0  0
  1 20  1  0  0  0  0
  1 21  1  0  0  0  0
  1 22  1  0  0  0  0
  2 23  1  0  0  0  0
  2 24  1  0  0  0  0
  7 25  1  0  0  0  0
  7 26  1  0  0  0  0
  8 27  1  0  0  0  0
  8 28  1  0  0  0  0
  8 29  1  0  0  0  0
 10 30  1  0  0  0  0
 10 31  1  0  0  0  0
 15 32  1  0  0  0  0
 15 33  1  0  0  0  0
 16 34  1  0  0  0  0
 16 35  1  0  0  0  0
 16 36  1  0  0  0  0
 18 37  1  0  0  0  0
 18 38  1  0  0  0  0
 19 39  1  0  0  0  0
 19 40  1  0  0  0  0
 19 41  1  0  0  0  0
M  END
