 xtb: 6.7.1 (edcfbbe)
          04032521023D

 10 10  0     0  0            999 V2000
   -1.6955   -0.8164   -0.4579 C   0  0  0  0  0  0  0  0  0  0  0  0
   -0.8777   -0.0512    0.5623 C   0  0  0  0  0  0  0  0  0  0  0  0
    0.4768    0.2269    0.0913 N   0  0  0  0  0  0  0  0  0  0  0  0
    1.2104    0.8396    0.8466 O   0  0  0  0  0  0  0  0  0  0  0  0
    0.8116   -0.1542   -1.0087 O   0  0  0  0  0  0  0  0  0  0  0  0
   -1.2271   -1.7692   -0.6890 H   0  0  0  0  0  0  0  0  0  0  0  0
   -2.6883   -0.9985   -0.0602 H   0  0  0  0  0  0  0  0  0  0  0  0
   -1.7832   -0.2512   -1.3818 H   0  0  0  0  0  0  0  0  0  0  0  0
   -0.7733   -0.6045    1.4993 H   0  0  0  0  0  0  0  0  0  0  0  0
   -1.3275    0.9155    0.8035 H   0  0  0  0  0  0  0  0  0  0  0  0
  1  2  1  0  0  0  0
  2  3  1  0  0  0  0
  3  4  4  0  0  0  0
  3  5  4  0  0  0  0
  4  5  1  0  0  0  0
  1  6  1  0  0  0  0
  1  7  1  0  0  0  0
  1  8  1  0  0  0  0
  2  9  1  0  0  0  0
  2 10  1  0  0  0  0
M  END
