 xtb: 6.7.1 (edcfbbe)
          04092505213D

 41 40  0     0  0            999 V2000
    3.8042   -1.6933   -2.6289 C   0  0  0  0  0  0  0  0  0  0  0  0
    3.9812   -0.2213   -2.3187 C   0  0  0  0  0  0  0  0  0  0  0  0
    3.4865    0.1314   -1.0127 O   0  0  0  0  0  0  0  0  0  0  0  0
    1.9466    0.0559   -0.6238 P   0  0  0  0  0  0  0  0  0  0  0  0
    0.6982    0.6202   -2.0158 S   0  0  0  0  0  0  0  0  0  0  0  0
    1.8948    0.9649    0.6635 O   0  0  0  0  0  0  0  0  0  0  0  0
    2.8162    0.8413    1.7796 C   0  0  0  0  0  0  0  0  0  0  0  0
    2.1016    0.2791    2.9920 C   0  0  0  0  0  0  0  0  0  0  0  0
    1.6893   -1.9407    0.0488 S   0  0  0  0  0  0  0  0  0  0  0  0
   -0.1181   -1.9543    0.0287 C   0  0  0  0  0  0  0  0  0  0  0  0
   -0.8724   -1.1486    1.4851 S   0  0  0  0  0  0  0  0  0  0  0  0
   -1.7944    0.5930    0.7395 P   0  0  0  0  0  0  0  0  0  0  0  0
   -0.9346    2.3510    0.6799 S   0  0  0  0  0  0  0  0  0  0  0  0
   -3.0312    0.7581    1.7249 O   0  0  0  0  0  0  0  0  0  0  0  0
   -3.8691   -0.2847    2.2775 C   0  0  0  0  0  0  0  0  0  0  0  0
   -4.5946   -1.0860    1.2164 C   0  0  0  0  0  0  0  0  0  0  0  0
   -2.3306    0.0323   -0.6569 O   0  0  0  0  0  0  0  0  0  0  0  0
   -2.8113    0.9079   -1.6941 C   0  0  0  0  0  0  0  0  0  0  0  0
   -2.8457    0.1220   -2.9879 C   0  0  0  0  0  0  0  0  0  0  0  0
    2.7472   -1.9259   -2.7449 H   0  0  0  0  0  0  0  0  0  0  0  0
    4.3182   -1.9239   -3.5565 H   0  0  0  0  0  0  0  0  0  0  0  0
    4.2140   -2.3026   -1.8273 H   0  0  0  0  0  0  0  0  0  0  0  0
    3.4621    0.3941   -3.0598 H   0  0  0  0  0  0  0  0  0  0  0  0
    5.0346    0.0594   -2.2765 H   0  0  0  0  0  0  0  0  0  0  0  0
    3.6576    0.2135    1.4799 H   0  0  0  0  0  0  0  0  0  0  0  0
    3.1611    1.8603    1.9619 H   0  0  0  0  0  0  0  0  0  0  0  0
    1.2089    0.8664    3.1977 H   0  0  0  0  0  0  0  0  0  0  0  0
    1.8093   -0.7558    2.8288 H   0  0  0  0  0  0  0  0  0  0  0  0
    2.7665    0.3304    3.8482 H   0  0  0  0  0  0  0  0  0  0  0  0
   -0.4160   -2.9984    0.0649 H   0  0  0  0  0  0  0  0  0  0  0  0
   -0.4750   -1.4619   -0.8761 H   0  0  0  0  0  0  0  0  0  0  0  0
   -3.2467   -0.9317    2.8998 H   0  0  0  0  0  0  0  0  0  0  0  0
   -4.5671    0.2702    2.9070 H   0  0  0  0  0  0  0  0  0  0  0  0
   -5.1648   -0.4257    0.5675 H   0  0  0  0  0  0  0  0  0  0  0  0
   -3.8867   -1.6499    0.6135 H   0  0  0  0  0  0  0  0  0  0  0  0
   -5.2740   -1.7786    1.7036 H   0  0  0  0  0  0  0  0  0  0  0  0
   -3.8055    1.2610   -1.4067 H   0  0  0  0  0  0  0  0  0  0  0  0
   -2.1379    1.7687   -1.7673 H   0  0  0  0  0  0  0  0  0  0  0  0
   -1.8355   -0.1620   -3.2720 H   0  0  0  0  0  0  0  0  0  0  0  0
   -3.4518   -0.7709   -2.8665 H   0  0  0  0  0  0  0  0  0  0  0  0
   -3.2698    0.7455   -3.7677 H   0  0  0  0  0  0  0  0  0  0  0  0
  1  2  1  0  0  0  0
  2  3  1  0  0  0  0
  3  4  2  0  0  0  0
  4  5  2  0  0  0  0
  4  6  2  0  0  0  0
  6  7  1  0  0  0  0
  7  8  1  0  0  0  0
  4  9  1  0  0  0  0
  9 10  1  0  0  0  0
 10 11  1  0  0  0  0
 11 12  1  0  0  0  0
 12 13  2  0  0  0  0
 12 14  2  0  0  0  0
 14 15  1  0  0  0  0
 15 16  1  0  0  0  0
 12 17  1  0  0  0  0
 17 18  1  0  0  0  0
 18 19  1  0  0  0  0
  1 20  1  0  0  0  0
  1 21  1  0  0  0  0
  1 22  1  0  0  0  0
  2 23  1  0  0  0  0
  2 24  1  0  0  0  0
  7 25  1  0  0  0  0
  7 26  1  0  0  0  0
  8 27  1  0  0  0  0
  8 28  1  0  0  0  0
  8 29  1  0  0  0  0
 10 30  1  0  0  0  0
 10 31  1  0  0  0  0
 15 32  1  0  0  0  0
 15 33  1  0  0  0  0
 16 34  1  0  0  0  0
 16 35  1  0  0  0  0
 16 36  1  0  0  0  0
 18 37  1  0  0  0  0
 18 38  1  0  0  0  0
 19 39  1  0  0  0  0
 19 40  1  0  0  0  0
 19 41  1  0  0  0  0
M  END
