 xtb: 6.7.1 (edcfbbe)
          04092507313D

 38 37  0     0  0            999 V2000
    5.5730   -0.5184   -0.7329 C   0  0  0  0  0  0  0  0  0  0  0  0
    4.8038   -1.5922   -1.4844 C   0  0  0  0  0  0  0  0  0  0  0  0
    3.5685   -1.9100   -0.8129 O   0  0  0  0  0  0  0  0  0  0  0  0
    2.4920   -1.2084   -1.1053 C   0  0  0  0  0  0  0  0  0  0  0  0
    2.4547   -0.2976   -1.9021 O   0  0  0  0  0  0  0  0  0  0  0  0
    1.2863   -1.7305   -0.3454 C   0  0  0  0  0  0  0  0  0  0  0  0
    0.2232   -0.6502   -0.2312 C   0  0  0  0  0  0  0  0  0  0  0  0
    0.1251   -0.1279   -1.1940 H   0  0  0  0  0  0  0  0  0  0  0  0
    0.5278    0.4117    0.8032 C   0  0  0  0  0  0  0  0  0  0  0  0
   -0.3554    0.9950    1.4033 O   0  0  0  0  0  0  0  0  0  0  0  0
    1.8027    0.6336    0.9617 O   0  0  0  0  0  0  0  0  0  0  0  0
    2.1872    1.6787    1.8851 C   0  0  0  0  0  0  0  0  0  0  0  0
    3.6693    1.9396    1.7152 C   0  0  0  0  0  0  0  0  0  0  0  0
   -1.4071   -1.3526    0.1817 S   0  0  0  0  0  0  0  0  0  0  0  0
   -2.5643    0.4275    0.0550 P   0  0  0  0  0  0  0  0  0  0  0  0
   -1.9037    1.8490   -1.1190 S   0  0  0  0  0  0  0  0  0  0  0  0
   -3.9563   -0.1899   -0.4681 O   0  0  0  0  0  0  0  0  0  0  0  0
   -4.0946   -0.6995   -1.7964 C   0  0  0  0  0  0  0  0  0  0  0  0
   -3.0374    0.8928    1.4873 O   0  0  0  0  0  0  0  0  0  0  0  0
   -3.6635   -0.0095    2.4205 C   0  0  0  0  0  0  0  0  0  0  0  0
    6.5237   -0.3458   -1.2263 H   0  0  0  0  0  0  0  0  0  0  0  0
    5.0048    0.4083   -0.7264 H   0  0  0  0  0  0  0  0  0  0  0  0
    5.7528   -0.8339    0.2909 H   0  0  0  0  0  0  0  0  0  0  0  0
    5.3518   -2.5344   -1.5050 H   0  0  0  0  0  0  0  0  0  0  0  0
    4.5728   -1.2619   -2.5011 H   0  0  0  0  0  0  0  0  0  0  0  0
    1.6027   -2.0958    0.6304 H   0  0  0  0  0  0  0  0  0  0  0  0
    0.8790   -2.5724   -0.9101 H   0  0  0  0  0  0  0  0  0  0  0  0
    1.5849    2.5658    1.6668 H   0  0  0  0  0  0  0  0  0  0  0  0
    1.9470    1.3362    2.8959 H   0  0  0  0  0  0  0  0  0  0  0  0
    3.9752    2.7156    2.4087 H   0  0  0  0  0  0  0  0  0  0  0  0
    4.2335    1.0343    1.9165 H   0  0  0  0  0  0  0  0  0  0  0  0
    3.8752    2.2681    0.7005 H   0  0  0  0  0  0  0  0  0  0  0  0
   -3.5753   -1.6540   -1.8830 H   0  0  0  0  0  0  0  0  0  0  0  0
   -3.6874    0.0137   -2.5153 H   0  0  0  0  0  0  0  0  0  0  0  0
   -5.1626   -0.8275   -1.9522 H   0  0  0  0  0  0  0  0  0  0  0  0
   -3.7391    0.5529    3.3474 H   0  0  0  0  0  0  0  0  0  0  0  0
   -3.0434   -0.8958    2.5572 H   0  0  0  0  0  0  0  0  0  0  0  0
   -4.6481   -0.2941    2.0537 H   0  0  0  0  0  0  0  0  0  0  0  0
  1  2  1  0  0  0  0
  2  3  1  0  0  0  0
  3  4  1  0  0  0  0
  4  5  2  0  0  0  0
  4  6  1  0  0  0  0
  6  7  1  0  0  0  0
  7  8  1  0  0  0  0
  7  9  1  0  0  0  0
  9 10  2  0  0  0  0
  9 11  4  0  0  0  0
 11 12  1  0  0  0  0
 12 13  1  0  0  0  0
  7 14  1  0  0  0  0
 14 15  1  0  0  0  0
 15 16  2  0  0  0  0
 15 17  1  0  0  0  0
 17 18  1  0  0  0  0
 15 19  2  0  0  0  0
 19 20  1  0  0  0  0
  1 21  1  0  0  0  0
  1 22  1  0  0  0  0
  1 23  1  0  0  0  0
  2 24  1  0  0  0  0
  2 25  1  0  0  0  0
  6 26  1  0  0  0  0
  6 27  1  0  0  0  0
 12 28  1  0  0  0  0
 12 29  1  0  0  0  0
 13 30  1  0  0  0  0
 13 31  1  0  0  0  0
 13 32  1  0  0  0  0
 18 33  1  0  0  0  0
 18 34  1  0  0  0  0
 18 35  1  0  0  0  0
 20 36  1  0  0  0  0
 20 37  1  0  0  0  0
 20 38  1  0  0  0  0
M  END
