 xtb: 6.7.1 (edcfbbe)
          04092514013D

 41 40  0     0  0            999 V2000
    5.6691   -0.0106   -0.9273 C   0  0  0  0  0  0  0  0  0  0  0  0
    4.6457   -0.9143   -0.2655 C   0  0  0  0  0  0  0  0  0  0  0  0
    3.6450   -0.1376    0.4259 O   0  0  0  0  0  0  0  0  0  0  0  0
    2.2109    0.1689   -0.1906 P   0  0  0  0  0  0  0  0  0  0  0  0
    2.1801    0.9534   -1.9893 S   0  0  0  0  0  0  0  0  0  0  0  0
    1.5745    1.0316    0.9743 O   0  0  0  0  0  0  0  0  0  0  0  0
    1.5728    2.4738    0.9467 C   0  0  0  0  0  0  0  0  0  0  0  0
    2.9521    3.0449    1.1940 C   0  0  0  0  0  0  0  0  0  0  0  0
    1.2245   -1.6872    0.0373 S   0  0  0  0  0  0  0  0  0  0  0  0
    0.0718   -1.6363   -1.3843 C   0  0  0  0  0  0  0  0  0  0  0  0
   -1.6126   -2.1144   -0.9355 S   0  0  0  0  0  0  0  0  0  0  0  0
   -2.1851   -0.3878    0.1268 P   0  0  0  0  0  0  0  0  0  0  0  0
   -1.4758    1.3180   -0.5490 S   0  0  0  0  0  0  0  0  0  0  0  0
   -1.7870   -0.7720    1.6074 O   0  0  0  0  0  0  0  0  0  0  0  0
   -1.5711    0.2143    2.6371 C   0  0  0  0  0  0  0  0  0  0  0  0
   -2.8593    0.8918    3.0547 C   0  0  0  0  0  0  0  0  0  0  0  0
   -3.7675   -0.5009    0.1794 O   0  0  0  0  0  0  0  0  0  0  0  0
   -4.6136   -0.1775   -0.9439 C   0  0  0  0  0  0  0  0  0  0  0  0
   -6.0168    0.0600   -0.4205 C   0  0  0  0  0  0  0  0  0  0  0  0
    5.1991    0.5867   -1.7056 H   0  0  0  0  0  0  0  0  0  0  0  0
    6.1134    0.6539   -0.1915 H   0  0  0  0  0  0  0  0  0  0  0  0
    6.4481   -0.6216   -1.3728 H   0  0  0  0  0  0  0  0  0  0  0  0
    5.1054   -1.5305    0.5096 H   0  0  0  0  0  0  0  0  0  0  0  0
    4.1605   -1.5602   -1.0028 H   0  0  0  0  0  0  0  0  0  0  0  0
    1.1763    2.8012   -0.0205 H   0  0  0  0  0  0  0  0  0  0  0  0
    0.8724    2.7531    1.7354 H   0  0  0  0  0  0  0  0  0  0  0  0
    3.6176    2.7750    0.3754 H   0  0  0  0  0  0  0  0  0  0  0  0
    2.8830    4.1269    1.2525 H   0  0  0  0  0  0  0  0  0  0  0  0
    3.3588    2.6554    2.1235 H   0  0  0  0  0  0  0  0  0  0  0  0
    0.4008   -2.3656   -2.1202 H   0  0  0  0  0  0  0  0  0  0  0  0
    0.0770   -0.6265   -1.8036 H   0  0  0  0  0  0  0  0  0  0  0  0
   -1.1269   -0.3561    3.4538 H   0  0  0  0  0  0  0  0  0  0  0  0
   -0.8484    0.9471    2.2636 H   0  0  0  0  0  0  0  0  0  0  0  0
   -3.5948    0.1499    3.3539 H   0  0  0  0  0  0  0  0  0  0  0  0
   -2.6591    1.5595    3.8875 H   0  0  0  0  0  0  0  0  0  0  0  0
   -3.2603    1.4714    2.2239 H   0  0  0  0  0  0  0  0  0  0  0  0
   -4.2137    0.7147   -1.4370 H   0  0  0  0  0  0  0  0  0  0  0  0
   -4.5876   -1.0163   -1.6445 H   0  0  0  0  0  0  0  0  0  0  0  0
   -6.3900   -0.8363    0.0662 H   0  0  0  0  0  0  0  0  0  0  0  0
   -6.0178    0.8763    0.2963 H   0  0  0  0  0  0  0  0  0  0  0  0
   -6.6671    0.3147   -1.2512 H   0  0  0  0  0  0  0  0  0  0  0  0
  1  2  1  0  0  0  0
  2  3  1  0  0  0  0
  3  4  2  0  0  0  0
  4  5  2  0  0  0  0
  4  6  2  0  0  0  0
  6  7  1  0  0  0  0
  7  8  1  0  0  0  0
  4  9  1  0  0  0  0
  9 10  1  0  0  0  0
 10 11  1  0  0  0  0
 11 12  1  0  0  0  0
 12 13  2  0  0  0  0
 12 14  2  0  0  0  0
 14 15  1  0  0  0  0
 15 16  1  0  0  0  0
 12 17  2  0  0  0  0
 17 18  1  0  0  0  0
 18 19  1  0  0  0  0
  1 20  1  0  0  0  0
  1 21  1  0  0  0  0
  1 22  1  0  0  0  0
  2 23  1  0  0  0  0
  2 24  1  0  0  0  0
  7 25  1  0  0  0  0
  7 26  1  0  0  0  0
  8 27  1  0  0  0  0
  8 28  1  0  0  0  0
  8 29  1  0  0  0  0
 10 30  1  0  0  0  0
 10 31  1  0  0  0  0
 15 32  1  0  0  0  0
 15 33  1  0  0  0  0
 16 34  1  0  0  0  0
 16 35  1  0  0  0  0
 16 36  1  0  0  0  0
 18 37  1  0  0  0  0
 18 38  1  0  0  0  0
 19 39  1  0  0  0  0
 19 40  1  0  0  0  0
 19 41  1  0  0  0  0
M  END
