 xtb: 6.7.1 (edcfbbe)
          04032520323D

 13 13  0     0  0            999 V2000
    2.0958    0.0000    0.0124 C   0  0  0  0  0  0  0  0  0  0  0  0
    0.6587    0.0004   -0.0175 N   0  0  0  0  0  0  0  0  0  0  0  0
   -0.1318    1.1023   -0.0051 C   0  0  0  0  0  0  0  0  0  0  0  0
   -1.4424    0.7033    0.0066 C   0  0  0  0  0  0  0  0  0  0  0  0
   -1.4420   -0.7039    0.0067 C   0  0  0  0  0  0  0  0  0  0  0  0
   -0.1312   -1.1021   -0.0051 C   0  0  0  0  0  0  0  0  0  0  0  0
    2.4623   -0.0226    1.0417 H   0  0  0  0  0  0  0  0  0  0  0  0
    2.4727   -0.8758   -0.5133 H   0  0  0  0  0  0  0  0  0  0  0  0
    2.4713    0.8986   -0.4740 H   0  0  0  0  0  0  0  0  0  0  0  0
    0.2882    2.0888   -0.0100 H   0  0  0  0  0  0  0  0  0  0  0  0
   -2.3039    1.3427    0.0116 H   0  0  0  0  0  0  0  0  0  0  0  0
   -2.3032   -1.3438    0.0117 H   0  0  0  0  0  0  0  0  0  0  0  0
    0.2895   -2.0883   -0.0105 H   0  0  0  0  0  0  0  0  0  0  0  0
  1  2  1  0  0  0  0
  2  3  4  0  0  0  0
  3  4  2  0  0  0  0
  4  5  4  0  0  0  0
  2  6  4  0  0  0  0
  5  6  2  0  0  0  0
  1  7  1  0  0  0  0
  1  8  1  0  0  0  0
  1  9  1  0  0  0  0
  3 10  1  0  0  0  0
  4 11  1  0  0  0  0
  5 12  1  0  0  0  0
  6 13  1  0  0  0  0
M  END
