 xtb: 6.7.1 (edcfbbe)
          04092505203D

 41 40  0     0  0            999 V2000
    1.4787   -2.8459    1.3112 C   0  0  0  0  0  0  0  0  0  0  0  0
    1.5061   -1.4171    1.8150 C   0  0  0  0  0  0  0  0  0  0  0  0
    2.5834   -0.6544    1.2477 O   0  0  0  0  0  0  0  0  0  0  0  0
    2.6831   -0.1362   -0.2562 P   0  0  0  0  0  0  0  0  0  0  0  0
    2.9268   -1.4510   -1.6864 S   0  0  0  0  0  0  0  0  0  0  0  0
    3.9533    0.7875   -0.1680 O   0  0  0  0  0  0  0  0  0  0  0  0
    4.3276    1.6263    0.9523 C   0  0  0  0  0  0  0  0  0  0  0  0
    3.3142    2.7171    1.2255 C   0  0  0  0  0  0  0  0  0  0  0  0
    0.9995    1.1628   -0.5258 S   0  0  0  0  0  0  0  0  0  0  0  0
    0.0858    0.1910   -1.7429 C   0  0  0  0  0  0  0  0  0  0  0  0
   -0.8676   -1.1620   -1.0055 S   0  0  0  0  0  0  0  0  0  0  0  0
   -2.2703    0.0719   -0.0109 P   0  0  0  0  0  0  0  0  0  0  0  0
   -2.8531    1.6880   -0.9670 S   0  0  0  0  0  0  0  0  0  0  0  0
   -1.5280    0.3638    1.3612 O   0  0  0  0  0  0  0  0  0  0  0  0
   -1.7892    1.5478    2.1393 C   0  0  0  0  0  0  0  0  0  0  0  0
   -3.1441    1.4689    2.8101 C   0  0  0  0  0  0  0  0  0  0  0  0
   -3.3879   -0.9450    0.4750 O   0  0  0  0  0  0  0  0  0  0  0  0
   -4.0635   -1.9098   -0.3515 C   0  0  0  0  0  0  0  0  0  0  0  0
   -4.6569   -1.3006   -1.6050 C   0  0  0  0  0  0  0  0  0  0  0  0
    2.4436   -3.3197    1.4724 H   0  0  0  0  0  0  0  0  0  0  0  0
    0.7117   -3.3972    1.8456 H   0  0  0  0  0  0  0  0  0  0  0  0
    1.2530   -2.8729    0.2468 H   0  0  0  0  0  0  0  0  0  0  0  0
    1.7054   -1.3821    2.8881 H   0  0  0  0  0  0  0  0  0  0  0  0
    0.5587   -0.9111    1.6051 H   0  0  0  0  0  0  0  0  0  0  0  0
    4.4636    0.9872    1.8264 H   0  0  0  0  0  0  0  0  0  0  0  0
    5.2878    2.0400    0.6404 H   0  0  0  0  0  0  0  0  0  0  0  0
    2.3679    2.2852    1.5470 H   0  0  0  0  0  0  0  0  0  0  0  0
    3.6916    3.3641    2.0113 H   0  0  0  0  0  0  0  0  0  0  0  0
    3.1389    3.3068    0.3292 H   0  0  0  0  0  0  0  0  0  0  0  0
    0.7866   -0.2672   -2.4417 H   0  0  0  0  0  0  0  0  0  0  0  0
   -0.5954    0.8790   -2.2436 H   0  0  0  0  0  0  0  0  0  0  0  0
   -0.9755    1.5762    2.8649 H   0  0  0  0  0  0  0  0  0  0  0  0
   -1.7293    2.4200    1.4803 H   0  0  0  0  0  0  0  0  0  0  0  0
   -3.2106    0.5716    3.4192 H   0  0  0  0  0  0  0  0  0  0  0  0
   -3.2931    2.3451    3.4331 H   0  0  0  0  0  0  0  0  0  0  0  0
   -3.9244    1.4348    2.0503 H   0  0  0  0  0  0  0  0  0  0  0  0
   -3.3497   -2.6985   -0.6054 H   0  0  0  0  0  0  0  0  0  0  0  0
   -4.8398   -2.3096    0.3034 H   0  0  0  0  0  0  0  0  0  0  0  0
   -3.8648   -0.9310   -2.2552 H   0  0  0  0  0  0  0  0  0  0  0  0
   -5.2265   -2.0550   -2.1382 H   0  0  0  0  0  0  0  0  0  0  0  0
   -5.3102   -0.4689   -1.3517 H   0  0  0  0  0  0  0  0  0  0  0  0
  1  2  1  0  0  0  0
  2  3  1  0  0  0  0
  3  4  2  0  0  0  0
  4  5  2  0  0  0  0
  4  6  2  0  0  0  0
  6  7  1  0  0  0  0
  7  8  1  0  0  0  0
  4  9  1  0  0  0  0
  9 10  1  0  0  0  0
 10 11  1  0  0  0  0
 11 12  1  0  0  0  0
 12 13  2  0  0  0  0
 12 14  2  0  0  0  0
 14 15  1  0  0  0  0
 15 16  1  0  0  0  0
 12 17  2  0  0  0  0
 17 18  1  0  0  0  0
 18 19  1  0  0  0  0
  1 20  1  0  0  0  0
  1 21  1  0  0  0  0
  1 22  1  0  0  0  0
  2 23  1  0  0  0  0
  2 24  1  0  0  0  0
  7 25  1  0  0  0  0
  7 26  1  0  0  0  0
  8 27  1  0  0  0  0
  8 28  1  0  0  0  0
  8 29  1  0  0  0  0
 10 30  1  0  0  0  0
 10 31  1  0  0  0  0
 15 32  1  0  0  0  0
 15 33  1  0  0  0  0
 16 34  1  0  0  0  0
 16 35  1  0  0  0  0
 16 36  1  0  0  0  0
 18 37  1  0  0  0  0
 18 38  1  0  0  0  0
 19 39  1  0  0  0  0
 19 40  1  0  0  0  0
 19 41  1  0  0  0  0
M  END
