 xtb: 6.7.1 (edcfbbe)
          04092505203D

 41 40  0     0  0            999 V2000
    4.6297   -1.4504   -1.1154 C   0  0  0  0  0  0  0  0  0  0  0  0
    4.7114   -0.0754   -0.4849 C   0  0  0  0  0  0  0  0  0  0  0  0
    3.6198    0.1705    0.4170 O   0  0  0  0  0  0  0  0  0  0  0  0
    2.1195    0.3441   -0.0885 P   0  0  0  0  0  0  0  0  0  0  0  0
    1.9922    1.2757   -1.8152 S   0  0  0  0  0  0  0  0  0  0  0  0
    1.4586    0.9575    1.2164 O   0  0  0  0  0  0  0  0  0  0  0  0
    1.9498    2.1371    1.8923 C   0  0  0  0  0  0  0  0  0  0  0  0
    1.6624    3.4020    1.1090 C   0  0  0  0  0  0  0  0  0  0  0  0
    1.2830   -1.5944   -0.0065 S   0  0  0  0  0  0  0  0  0  0  0  0
    0.2728   -1.5816   -1.5235 C   0  0  0  0  0  0  0  0  0  0  0  0
   -1.4605   -2.0139   -1.2224 S   0  0  0  0  0  0  0  0  0  0  0  0
   -2.0019   -0.4342    0.0573 P   0  0  0  0  0  0  0  0  0  0  0  0
   -1.3326    1.3625   -0.3773 S   0  0  0  0  0  0  0  0  0  0  0  0
   -1.5971   -1.0252    1.4656 O   0  0  0  0  0  0  0  0  0  0  0  0
   -1.4242   -0.1999    2.6352 C   0  0  0  0  0  0  0  0  0  0  0  0
   -2.7319    0.4139    3.0870 C   0  0  0  0  0  0  0  0  0  0  0  0
   -3.5849   -0.5508    0.0953 O   0  0  0  0  0  0  0  0  0  0  0  0
   -4.4070   -0.0644   -0.9844 C   0  0  0  0  0  0  0  0  0  0  0  0
   -5.8295    0.0438   -0.4736 C   0  0  0  0  0  0  0  0  0  0  0  0
    4.5176   -2.2125   -0.3485 H   0  0  0  0  0  0  0  0  0  0  0  0
    3.7738   -1.4976   -1.7874 H   0  0  0  0  0  0  0  0  0  0  0  0
    5.5344   -1.6386   -1.6844 H   0  0  0  0  0  0  0  0  0  0  0  0
    4.7028    0.7009   -1.2567 H   0  0  0  0  0  0  0  0  0  0  0  0
    5.5979    0.0299    0.1418 H   0  0  0  0  0  0  0  0  0  0  0  0
    1.4127    2.1293    2.8428 H   0  0  0  0  0  0  0  0  0  0  0  0
    3.0204    2.0146    2.0710 H   0  0  0  0  0  0  0  0  0  0  0  0
    0.6078    3.4450    0.8431 H   0  0  0  0  0  0  0  0  0  0  0  0
    1.9187    4.2673    1.7117 H   0  0  0  0  0  0  0  0  0  0  0  0
    2.2447    3.4220    0.1895 H   0  0  0  0  0  0  0  0  0  0  0  0
    0.6485   -2.3473   -2.1975 H   0  0  0  0  0  0  0  0  0  0  0  0
    0.3416   -0.5886   -1.9785 H   0  0  0  0  0  0  0  0  0  0  0  0
   -1.0142   -0.8868    3.3768 H   0  0  0  0  0  0  0  0  0  0  0  0
   -0.6886    0.5758    2.4013 H   0  0  0  0  0  0  0  0  0  0  0  0
   -2.5782    0.9472    4.0200 H   0  0  0  0  0  0  0  0  0  0  0  0
   -3.0893    1.1133    2.3318 H   0  0  0  0  0  0  0  0  0  0  0  0
   -3.4794   -0.3619    3.2293 H   0  0  0  0  0  0  0  0  0  0  0  0
   -4.0188    0.9077   -1.3077 H   0  0  0  0  0  0  0  0  0  0  0  0
   -4.3334   -0.7718   -1.8148 H   0  0  0  0  0  0  0  0  0  0  0  0
   -5.8825    0.7580    0.3432 H   0  0  0  0  0  0  0  0  0  0  0  0
   -6.4730    0.3753   -1.2817 H   0  0  0  0  0  0  0  0  0  0  0  0
   -6.1671   -0.9250   -0.1174 H   0  0  0  0  0  0  0  0  0  0  0  0
  1  2  1  0  0  0  0
  2  3  1  0  0  0  0
  3  4  2  0  0  0  0
  4  5  2  0  0  0  0
  4  6  2  0  0  0  0
  6  7  1  0  0  0  0
  7  8  1  0  0  0  0
  4  9  1  0  0  0  0
  9 10  1  0  0  0  0
 10 11  1  0  0  0  0
 11 12  1  0  0  0  0
 12 13  2  0  0  0  0
 12 14  2  0  0  0  0
 14 15  1  0  0  0  0
 15 16  1  0  0  0  0
 12 17  2  0  0  0  0
 17 18  1  0  0  0  0
 18 19  1  0  0  0  0
  1 20  1  0  0  0  0
  1 21  1  0  0  0  0
  1 22  1  0  0  0  0
  2 23  1  0  0  0  0
  2 24  1  0  0  0  0
  7 25  1  0  0  0  0
  7 26  1  0  0  0  0
  8 27  1  0  0  0  0
  8 28  1  0  0  0  0
  8 29  1  0  0  0  0
 10 30  1  0  0  0  0
 10 31  1  0  0  0  0
 15 32  1  0  0  0  0
 15 33  1  0  0  0  0
 16 34  1  0  0  0  0
 16 35  1  0  0  0  0
 16 36  1  0  0  0  0
 18 37  1  0  0  0  0
 18 38  1  0  0  0  0
 19 39  1  0  0  0  0
 19 40  1  0  0  0  0
 19 41  1  0  0  0  0
M  END
