 xtb: 6.7.1 (edcfbbe)
          04092505213D

 41 40  0     0  0            999 V2000
    3.1433    2.6429   -0.7695 C   0  0  0  0  0  0  0  0  0  0  0  0
    3.9796    1.3893   -0.9228 C   0  0  0  0  0  0  0  0  0  0  0  0
    3.6547    0.3775    0.0459 O   0  0  0  0  0  0  0  0  0  0  0  0
    2.1878   -0.0792    0.4583 P   0  0  0  0  0  0  0  0  0  0  0  0
    1.3306    1.0478    1.8194 S   0  0  0  0  0  0  0  0  0  0  0  0
    2.4357   -1.5789    0.9027 O   0  0  0  0  0  0  0  0  0  0  0  0
    2.5592   -1.9526    2.2893 C   0  0  0  0  0  0  0  0  0  0  0  0
    3.9031   -1.5308    2.8439 C   0  0  0  0  0  0  0  0  0  0  0  0
    1.2523   -0.3985   -1.4328 S   0  0  0  0  0  0  0  0  0  0  0  0
    0.2357   -1.8447   -1.0317 C   0  0  0  0  0  0  0  0  0  0  0  0
   -0.8674   -1.5847    0.3846 S   0  0  0  0  0  0  0  0  0  0  0  0
   -2.0430   -0.0729   -0.5040 P   0  0  0  0  0  0  0  0  0  0  0  0
   -2.4190   -0.2887   -2.4186 S   0  0  0  0  0  0  0  0  0  0  0  0
   -1.2559    1.2247   -0.0743 O   0  0  0  0  0  0  0  0  0  0  0  0
   -1.3690    2.4763   -0.7815 C   0  0  0  0  0  0  0  0  0  0  0  0
   -2.7557    3.0676   -0.6514 C   0  0  0  0  0  0  0  0  0  0  0  0
   -3.3215   -0.0135    0.4328 O   0  0  0  0  0  0  0  0  0  0  0  0
   -4.3909   -0.9750    0.3166 C   0  0  0  0  0  0  0  0  0  0  0  0
   -5.6202   -0.3884    0.9802 C   0  0  0  0  0  0  0  0  0  0  0  0
    2.0937    2.4097   -0.9529 H   0  0  0  0  0  0  0  0  0  0  0  0
    3.2383    3.0432    0.2375 H   0  0  0  0  0  0  0  0  0  0  0  0
    3.4702    3.3879   -1.4878 H   0  0  0  0  0  0  0  0  0  0  0  0
    5.0377    1.5895   -0.7450 H   0  0  0  0  0  0  0  0  0  0  0  0
    3.8446    0.9571   -1.9186 H   0  0  0  0  0  0  0  0  0  0  0  0
    1.7424   -1.4889    2.8523 H   0  0  0  0  0  0  0  0  0  0  0  0
    2.4375   -3.0364    2.2860 H   0  0  0  0  0  0  0  0  0  0  0  0
    3.9821   -0.4444    2.8156 H   0  0  0  0  0  0  0  0  0  0  0  0
    3.9938   -1.8682    3.8714 H   0  0  0  0  0  0  0  0  0  0  0  0
    4.7060   -1.9554    2.2476 H   0  0  0  0  0  0  0  0  0  0  0  0
    0.8753   -2.6881   -0.7865 H   0  0  0  0  0  0  0  0  0  0  0  0
   -0.3604   -2.0398   -1.9241 H   0  0  0  0  0  0  0  0  0  0  0  0
   -0.6117    3.1056   -0.3104 H   0  0  0  0  0  0  0  0  0  0  0  0
   -1.1131    2.3030   -1.8323 H   0  0  0  0  0  0  0  0  0  0  0  0
   -3.4790    2.4190   -1.1452 H   0  0  0  0  0  0  0  0  0  0  0  0
   -3.0242    3.1619    0.3976 H   0  0  0  0  0  0  0  0  0  0  0  0
   -2.7765    4.0453   -1.1224 H   0  0  0  0  0  0  0  0  0  0  0  0
   -4.5640   -1.1765   -0.7461 H   0  0  0  0  0  0  0  0  0  0  0  0
   -4.0734   -1.8982    0.8089 H   0  0  0  0  0  0  0  0  0  0  0  0
   -5.4019   -0.1518    2.0176 H   0  0  0  0  0  0  0  0  0  0  0  0
   -5.9260    0.5199    0.4690 H   0  0  0  0  0  0  0  0  0  0  0  0
   -6.4268   -1.1128    0.9374 H   0  0  0  0  0  0  0  0  0  0  0  0
  1  2  1  0  0  0  0
  2  3  1  0  0  0  0
  3  4  2  0  0  0  0
  4  5  2  0  0  0  0
  4  6  2  0  0  0  0
  6  7  1  0  0  0  0
  7  8  1  0  0  0  0
  4  9  1  0  0  0  0
  9 10  1  0  0  0  0
 10 11  1  0  0  0  0
 11 12  1  0  0  0  0
 12 13  2  0  0  0  0
 12 14  2  0  0  0  0
 14 15  1  0  0  0  0
 15 16  1  0  0  0  0
 12 17  2  0  0  0  0
 17 18  1  0  0  0  0
 18 19  1  0  0  0  0
  1 20  1  0  0  0  0
  1 21  1  0  0  0  0
  1 22  1  0  0  0  0
  2 23  1  0  0  0  0
  2 24  1  0  0  0  0
  7 25  1  0  0  0  0
  7 26  1  0  0  0  0
  8 27  1  0  0  0  0
  8 28  1  0  0  0  0
  8 29  1  0  0  0  0
 10 30  1  0  0  0  0
 10 31  1  0  0  0  0
 15 32  1  0  0  0  0
 15 33  1  0  0  0  0
 16 34  1  0  0  0  0
 16 35  1  0  0  0  0
 16 36  1  0  0  0  0
 18 37  1  0  0  0  0
 18 38  1  0  0  0  0
 19 39  1  0  0  0  0
 19 40  1  0  0  0  0
 19 41  1  0  0  0  0
M  END
