 xtb: 6.7.1 (edcfbbe)
          04092507313D

 38 37  0     0  0            999 V2000
    3.0290   -3.8398    1.2528 C   0  0  0  0  0  0  0  0  0  0  0  0
    2.9591   -3.2285   -0.1374 C   0  0  0  0  0  0  0  0  0  0  0  0
    2.9156   -1.7894   -0.0659 O   0  0  0  0  0  0  0  0  0  0  0  0
    1.7524   -1.2017    0.1025 C   0  0  0  0  0  0  0  0  0  0  0  0
    0.6929   -1.7954    0.1730 O   0  0  0  0  0  0  0  0  0  0  0  0
    1.8936    0.3009    0.1970 C   0  0  0  0  0  0  0  0  0  0  0  0
    0.5880    0.9827   -0.1718 C   0  0  0  0  0  0  0  0  0  0  0  0
    0.2281    0.6377   -1.1515 H   0  0  0  0  0  0  0  0  0  0  0  0
    0.6326    2.5028   -0.1923 C   0  0  0  0  0  0  0  0  0  0  0  0
   -0.2722    3.1702   -0.6404 O   0  0  0  0  0  0  0  0  0  0  0  0
    1.7296    2.9773    0.3494 O   0  0  0  0  0  0  0  0  0  0  0  0
    1.8965    4.4095    0.4153 C   0  0  0  0  0  0  0  0  0  0  0  0
    2.5282    4.9426   -0.8603 C   0  0  0  0  0  0  0  0  0  0  0  0
   -0.7507    0.5629    1.0108 S   0  0  0  0  0  0  0  0  0  0  0  0
   -1.7895   -0.8906   -0.1562 P   0  0  0  0  0  0  0  0  0  0  0  0
   -1.2968   -1.1082   -2.0382 S   0  0  0  0  0  0  0  0  0  0  0  0
   -1.9141   -2.2323    0.6597 O   0  0  0  0  0  0  0  0  0  0  0  0
   -2.3413   -2.2571    2.0356 C   0  0  0  0  0  0  0  0  0  0  0  0
   -3.3055   -0.3601    0.0037 O   0  0  0  0  0  0  0  0  0  0  0  0
   -3.7288    0.8410   -0.6408 C   0  0  0  0  0  0  0  0  0  0  0  0
    2.1183   -3.6187    1.8047 H   0  0  0  0  0  0  0  0  0  0  0  0
    3.1336   -4.9161    1.1651 H   0  0  0  0  0  0  0  0  0  0  0  0
    3.8808   -3.4389    1.7950 H   0  0  0  0  0  0  0  0  0  0  0  0
    2.0716   -3.5779   -0.6734 H   0  0  0  0  0  0  0  0  0  0  0  0
    3.8592   -3.4426   -0.7134 H   0  0  0  0  0  0  0  0  0  0  0  0
    2.6955    0.6213   -0.4683 H   0  0  0  0  0  0  0  0  0  0  0  0
    2.1771    0.5563    1.2208 H   0  0  0  0  0  0  0  0  0  0  0  0
    0.9175    4.8660    0.5834 H   0  0  0  0  0  0  0  0  0  0  0  0
    2.5455    4.5650    1.2769 H   0  0  0  0  0  0  0  0  0  0  0  0
    2.6906    6.0105   -0.7589 H   0  0  0  0  0  0  0  0  0  0  0  0
    3.4798    4.4518   -1.0434 H   0  0  0  0  0  0  0  0  0  0  0  0
    1.8685    4.7659   -1.7068 H   0  0  0  0  0  0  0  0  0  0  0  0
   -2.2447   -3.2959    2.3407 H   0  0  0  0  0  0  0  0  0  0  0  0
   -3.3749   -1.9233    2.1091 H   0  0  0  0  0  0  0  0  0  0  0  0
   -1.6962   -1.6159    2.6364 H   0  0  0  0  0  0  0  0  0  0  0  0
   -4.7894    0.9343   -0.4233 H   0  0  0  0  0  0  0  0  0  0  0  0
   -3.5626    0.7673   -1.7168 H   0  0  0  0  0  0  0  0  0  0  0  0
   -3.1792    1.6980   -0.2472 H   0  0  0  0  0  0  0  0  0  0  0  0
  1  2  1  0  0  0  0
  2  3  1  0  0  0  0
  3  4  4  0  0  0  0
  4  5  2  0  0  0  0
  4  6  1  0  0  0  0
  6  7  1  0  0  0  0
  7  8  1  0  0  0  0
  7  9  1  0  0  0  0
  9 10  2  0  0  0  0
  9 11  4  0  0  0  0
 11 12  1  0  0  0  0
 12 13  1  0  0  0  0
  7 14  1  0  0  0  0
 14 15  1  0  0  0  0
 15 16  2  0  0  0  0
 15 17  2  0  0  0  0
 17 18  1  0  0  0  0
 15 19  1  0  0  0  0
 19 20  1  0  0  0  0
  1 21  1  0  0  0  0
  1 22  1  0  0  0  0
  1 23  1  0  0  0  0
  2 24  1  0  0  0  0
  2 25  1  0  0  0  0
  6 26  1  0  0  0  0
  6 27  1  0  0  0  0
 12 28  1  0  0  0  0
 12 29  1  0  0  0  0
 13 30  1  0  0  0  0
 13 31  1  0  0  0  0
 13 32  1  0  0  0  0
 18 33  1  0  0  0  0
 18 34  1  0  0  0  0
 18 35  1  0  0  0  0
 20 36  1  0  0  0  0
 20 37  1  0  0  0  0
 20 38  1  0  0  0  0
M  END
