  24
 
 C         -2.0059348570        0.7308233140       -1.2577508201
 C         -1.5216136255       -0.0038030101        0.0008449847
 C         -2.0067498401        0.7376936929        1.2550591716
 C         -2.1428745600       -1.4035321256        0.0049383869
 C         -0.0007139891       -0.0358610902        0.0005248541
 C          0.7311457162       -1.2171928190       -0.0018371717
 C          2.1165406569       -1.2023435359       -0.0019978840
 C          2.8053673215       -0.0038152669       -0.0001257145
 C          2.0917091586        1.1824120766        0.0013584936
 C          0.7097207821        1.1626834183        0.0015481611
 H         -1.6444260985        0.2244307696       -2.1503211738
 H         -3.0930805329        0.7471565496       -1.2853717366
 H         -1.6487737219        1.7564725470       -1.2797876637
 H         -1.6505458285        0.2329913646        2.1506997327
 H         -1.6454692731        1.7619001993        1.2747592175
 H         -3.0939065169        0.7588918061        1.2788505004
 H         -1.8451591356       -1.9609115577        0.8899616936
 H         -3.2273271910       -1.3169003628        0.0113488298
 H         -1.8555022651       -1.9615433137       -0.8830392085
 H          0.2317865917       -2.1721993946       -0.0036794455
 H          2.6583306950       -2.1370937730       -0.0036213255
 H          3.8851106787        0.0074816568       -0.0000824847
 H          2.6138114572        2.1282374095        0.0023592831
 H          0.1811782776        2.1041828508        0.0024139985
          24
        -28.54643308
 C         -2.1323415005       -1.4058159182       -0.0006713180
 C         -1.5150807189       -0.0043489344       -0.0000213923
 C         -2.0024757549        0.7332471833       -1.2554376302
 C         -2.0007042926        0.7314949477        1.2572543356
 C          0.0060564883       -0.0323251844       -0.0006700872
 C          0.7408529819       -1.2118020780       -0.0004312978
 C          2.1262293035       -1.1933395460       -0.0000270794
 C          2.8117551257        0.0069860004        0.0001808360
 C          2.0951259047        1.1914601886       -0.0000424187
 C          0.7132085001        1.1681536610       -0.0004858296
 H         -3.2169966790       -1.3221362458       -0.0015870368
 H         -1.8376160497       -1.9626298249       -0.8869533910
 H         -1.8390436121       -1.9626891139        0.8860454429
 H         -3.0897054535        0.7500155992       -1.2797352935
 H         -1.6453261724        1.7589417046       -1.2765790905
 H         -1.6438720946        0.2286890163       -2.1501967229
 H         -3.0878877722        0.7448316833        1.2853527135
 H         -1.6373925098        0.2278073140        2.1506406368
 H         -1.6465699654        1.7582167870        1.2773038995
 H          0.2438787743       -2.1679914431       -0.0003071626
 H          2.6704850970       -2.1266501185        0.0001214293
 H          3.8915040297        0.0211132240        0.0004399059
 H          2.6150540786        2.1384663277        0.0000932905
 H          0.1820344798        2.1081368747       -0.0004452977
