 xtb: 6.7.1 (edcfbbe)
          04092505213D

 41 40  0     0  0            999 V2000
    4.7972   -0.7451   -2.2570 C   0  0  0  0  0  0  0  0  0  0  0  0
    4.4133   -1.6730   -1.1239 C   0  0  0  0  0  0  0  0  0  0  0  0
    3.9680   -0.9637    0.0480 O   0  0  0  0  0  0  0  0  0  0  0  0
    2.7800    0.0876    0.0825 P   0  0  0  0  0  0  0  0  0  0  0  0
    3.1060    1.9144   -0.5525 S   0  0  0  0  0  0  0  0  0  0  0  0
    2.4487    0.1562    1.6205 O   0  0  0  0  0  0  0  0  0  0  0  0
    2.4647   -0.9399    2.5683 C   0  0  0  0  0  0  0  0  0  0  0  0
    1.2308   -1.8109    2.4516 C   0  0  0  0  0  0  0  0  0  0  0  0
    1.2058   -0.9129   -0.9602 S   0  0  0  0  0  0  0  0  0  0  0  0
    0.0918    0.5006   -1.0239 C   0  0  0  0  0  0  0  0  0  0  0  0
   -0.8705    0.6998    0.4988 S   0  0  0  0  0  0  0  0  0  0  0  0
   -2.8388    0.3204   -0.2675 P   0  0  0  0  0  0  0  0  0  0  0  0
   -2.9972    0.1374   -2.2068 S   0  0  0  0  0  0  0  0  0  0  0  0
   -3.6793    1.5261    0.2988 O   0  0  0  0  0  0  0  0  0  0  0  0
   -3.7667    1.8083    1.7201 C   0  0  0  0  0  0  0  0  0  0  0  0
   -4.1838    3.2549    1.8798 C   0  0  0  0  0  0  0  0  0  0  0  0
   -3.4203   -0.8957    0.5829 O   0  0  0  0  0  0  0  0  0  0  0  0
   -3.2918   -2.2671    0.1663 C   0  0  0  0  0  0  0  0  0  0  0  0
   -1.8773   -2.7832    0.3296 C   0  0  0  0  0  0  0  0  0  0  0  0
    5.2009   -1.3267   -3.0794 H   0  0  0  0  0  0  0  0  0  0  0  0
    3.9238   -0.1960   -2.6065 H   0  0  0  0  0  0  0  0  0  0  0  0
    5.5418   -0.0259   -1.9238 H   0  0  0  0  0  0  0  0  0  0  0  0
    5.2729   -2.2429   -0.7666 H   0  0  0  0  0  0  0  0  0  0  0  0
    3.6162   -2.3537   -1.4347 H   0  0  0  0  0  0  0  0  0  0  0  0
    3.3776   -1.5179    2.4169 H   0  0  0  0  0  0  0  0  0  0  0  0
    2.5022   -0.4306    3.5327 H   0  0  0  0  0  0  0  0  0  0  0  0
    1.2382   -2.3659    1.5164 H   0  0  0  0  0  0  0  0  0  0  0  0
    1.2154   -2.5123    3.2799 H   0  0  0  0  0  0  0  0  0  0  0  0
    0.3387   -1.1898    2.4892 H   0  0  0  0  0  0  0  0  0  0  0  0
   -0.5967    0.3478   -1.8588 H   0  0  0  0  0  0  0  0  0  0  0  0
    0.6911    1.4022   -1.1672 H   0  0  0  0  0  0  0  0  0  0  0  0
   -4.5017    1.1249    2.1490 H   0  0  0  0  0  0  0  0  0  0  0  0
   -2.7886    1.6211    2.1732 H   0  0  0  0  0  0  0  0  0  0  0  0
   -3.4364    3.9111    1.4422 H   0  0  0  0  0  0  0  0  0  0  0  0
   -5.1329    3.4250    1.3799 H   0  0  0  0  0  0  0  0  0  0  0  0
   -4.2863    3.4822    2.9360 H   0  0  0  0  0  0  0  0  0  0  0  0
   -3.9910   -2.8007    0.8117 H   0  0  0  0  0  0  0  0  0  0  0  0
   -3.6152   -2.3437   -0.8765 H   0  0  0  0  0  0  0  0  0  0  0  0
   -1.8576   -3.8456    0.1100 H   0  0  0  0  0  0  0  0  0  0  0  0
   -1.2064   -2.2743   -0.3617 H   0  0  0  0  0  0  0  0  0  0  0  0
   -1.5319   -2.6200    1.3468 H   0  0  0  0  0  0  0  0  0  0  0  0
  1  2  1  0  0  0  0
  2  3  1  0  0  0  0
  3  4  2  0  0  0  0
  4  5  2  0  0  0  0
  4  6  2  0  0  0  0
  6  7  1  0  0  0  0
  7  8  1  0  0  0  0
  4  9  1  0  0  0  0
  9 10  1  0  0  0  0
 10 11  1  0  0  0  0
 11 12  1  0  0  0  0
 12 13  2  0  0  0  0
 12 14  2  0  0  0  0
 14 15  1  0  0  0  0
 15 16  1  0  0  0  0
 12 17  2  0  0  0  0
 17 18  1  0  0  0  0
 18 19  1  0  0  0  0
  1 20  1  0  0  0  0
  1 21  1  0  0  0  0
  1 22  1  0  0  0  0
  2 23  1  0  0  0  0
  2 24  1  0  0  0  0
  7 25  1  0  0  0  0
  7 26  1  0  0  0  0
  8 27  1  0  0  0  0
  8 28  1  0  0  0  0
  8 29  1  0  0  0  0
 10 30  1  0  0  0  0
 10 31  1  0  0  0  0
 15 32  1  0  0  0  0
 15 33  1  0  0  0  0
 16 34  1  0  0  0  0
 16 35  1  0  0  0  0
 16 36  1  0  0  0  0
 18 37  1  0  0  0  0
 18 38  1  0  0  0  0
 19 39  1  0  0  0  0
 19 40  1  0  0  0  0
 19 41  1  0  0  0  0
M  END
