 xtb: 6.7.1 (edcfbbe)
          04032520013D

 20 20  0     0  0            999 V2000
    0.8716    1.3950   -0.5855 C   0  0  0  0  0  0  0  0  0  0  0  0
    1.6081    0.1774   -0.0066 C   0  0  0  0  0  0  0  0  0  0  0  0
    2.5810    0.0981   -0.5027 H   0  0  0  0  0  0  0  0  0  0  0  0
    0.8053   -1.1047   -0.3071 C   0  0  0  0  0  0  0  0  0  0  0  0
    1.2432   -1.9190    0.2854 H   0  0  0  0  0  0  0  0  0  0  0  0
   -0.6583   -0.9217    0.1386 C   0  0  0  0  0  0  0  0  0  0  0  0
   -1.2654   -1.7680   -0.2190 H   0  0  0  0  0  0  0  0  0  0  0  0
   -1.2293    0.3613   -0.4888 C   0  0  0  0  0  0  0  0  0  0  0  0
   -1.2161    0.2514   -1.5932 H   0  0  0  0  0  0  0  0  0  0  0  0
   -0.4628    1.4854   -0.1265 O   0  0  0  0  0  0  0  0  0  0  0  0
   -2.5143    0.5349   -0.0057 O   0  0  0  0  0  0  0  0  0  0  0  0
   -0.6957   -0.8488    1.5409 O   0  0  0  0  0  0  0  0  0  0  0  0
    0.8905   -1.3582   -1.6873 O   0  0  0  0  0  0  0  0  0  0  0  0
    1.8773    0.3124    1.3631 O   0  0  0  0  0  0  0  0  0  0  0  0
    0.8837    1.3240   -1.6809 H   0  0  0  0  0  0  0  0  0  0  0  0
    1.3546    2.3151   -0.2576 H   0  0  0  0  0  0  0  0  0  0  0  0
   -2.8133    1.4372   -0.1972 H   0  0  0  0  0  0  0  0  0  0  0  0
   -1.5799   -0.5439    1.8018 H   0  0  0  0  0  0  0  0  0  0  0  0
    0.6903   -2.2874   -1.8688 H   0  0  0  0  0  0  0  0  0  0  0  0
    1.0395    0.2235    1.8501 H   0  0  0  0  0  0  0  0  0  0  0  0
  1  2  1  0  0  0  0
  2  3  1  0  0  0  0
  2  4  1  0  0  0  0
  4  5  1  0  0  0  0
  4  6  1  0  0  0  0
  6  7  1  0  0  0  0
  6  8  1  0  0  0  0
  8  9  1  0  0  0  0
  1 10  1  0  0  0  0
  8 10  1  0  0  0  0
  8 11  1  0  0  0  0
  6 12  1  0  0  0  0
  4 13  1  0  0  0  0
  2 14  1  0  0  0  0
  1 15  1  0  0  0  0
  1 16  1  0  0  0  0
 11 17  1  0  0  0  0
 12 18  1  0  0  0  0
 13 19  1  0  0  0  0
 14 20  1  0  0  0  0
M  END
