41
 xtb: 6.7.1 (edcfbbe)
C            3.18110166590943        0.79547431970392        3.23858323837496
C            1.79984614213635        0.39870537072960        2.77981036911095
O            1.62187410852208        0.60990654774285        1.33460991365698
P            2.29868850790498       -0.34935446864761        0.24193504401906
S            2.47854881151517       -2.23272805309197        0.70156481285420
O            3.65434431130517        0.46749121819823       -0.06663234534112
C            4.68765075649850       -0.09848904848823       -0.94503395900903
C            5.83381180899921        0.87829589231621       -0.96909510895259
S            1.16527256684569        0.08921783518624       -1.49392973636352
C           -0.08229157995290       -1.25618748153814       -1.43021663615058
S           -1.29196645735303       -1.21661318983611       -0.05334616909062
P           -2.53692233674137        0.40013311030859       -0.65840889107240
S           -3.01329861458876        0.44295287492268       -2.54263065628455
O           -1.81170416280933        1.76000254433983       -0.21940695236583
C           -1.42130444730774        2.03518849535668        1.17669944095559
C           -2.39112560113082        3.00952315349161        1.79640332581602
O           -3.70710604380072        0.26278359216409        0.43523528567251
C           -4.98398459946278       -0.42097575281869        0.17693837949714
C           -4.85858270267816       -1.91938995182252        0.28654711619073
H            3.22336878016313        0.71345215419234        4.32967180424281
H            3.94956357387001        0.13930437790969        2.81919211471570
H            3.40364643347968        1.82966278295755        2.96103529535220
H            1.02840426059579        1.03170656310008        3.22367667285348
H            1.57565804063941       -0.64872777135298        3.00330706280277
H            4.98835539882723       -1.06844170822904       -0.53860749859738
H            4.25478888552182       -0.24211004333524       -1.94039330443665
H            6.62440978861067        0.48084660157686       -1.61269136579501
H            5.51745501173887        1.84600931408308       -1.36730828425967
H            6.24411264477654        1.02051240998666        0.03434701795583
H            0.43098007718510       -2.21809455163812       -1.34490919493847
H           -0.61513784306092       -1.21167364146705       -2.38523249413093
H           -1.36751745123452        1.09487046804449        1.73401568196655
H           -0.41660013385170        2.45613070262915        1.10272366555752
H           -2.04581334424626        3.25210713834211        2.80684471959792
H           -2.43499222803810        3.93623450602941        1.21729531699638
H           -3.39505482461784        2.58323475072469        1.86710220459045
H           -5.64645714832405       -0.01559047358451        0.94414607296757
H           -5.34429592453341       -0.10919609368889       -0.80777061604830
H           -4.43773181894330       -2.20865594241865        1.25392545061810
H           -5.85904290491634       -2.35628502710544        0.20150228790091
H           -4.23795263165265       -2.33322187451556       -0.51295613432265
