 xtb: 6.7.1 (edcfbbe)
          04092509483D

 38 37  0     0  0            999 V2000
    3.6159   -4.0581   -0.7692 C   0  0  0  0  0  0  0  0  0  0  0  0
    2.1375   -3.7034   -0.7770 C   0  0  0  0  0  0  0  0  0  0  0  0
    1.9230   -2.3712   -0.2720 O   0  0  0  0  0  0  0  0  0  0  0  0
    2.0576   -1.3599   -1.1065 C   0  0  0  0  0  0  0  0  0  0  0  0
    2.3099   -1.4651   -2.2857 O   0  0  0  0  0  0  0  0  0  0  0  0
    1.8168   -0.0344   -0.4098 C   0  0  0  0  0  0  0  0  0  0  0  0
    0.6808    0.7010   -1.1153 C   0  0  0  0  0  0  0  0  0  0  0  0
    0.9608    0.8814   -2.1591 H   0  0  0  0  0  0  0  0  0  0  0  0
    0.3566    2.0398   -0.4717 C   0  0  0  0  0  0  0  0  0  0  0  0
   -0.7766    2.4161   -0.2617 O   0  0  0  0  0  0  0  0  0  0  0  0
    1.4525    2.7138   -0.2388 O   0  0  0  0  0  0  0  0  0  0  0  0
    1.3761    4.0319    0.3466 C   0  0  0  0  0  0  0  0  0  0  0  0
    1.4325    3.9601    1.8632 C   0  0  0  0  0  0  0  0  0  0  0  0
   -0.8322   -0.3073   -1.2553 S   0  0  0  0  0  0  0  0  0  0  0  0
   -1.7008   -0.1225    0.6780 P   0  0  0  0  0  0  0  0  0  0  0  0
   -0.5644    0.3183    2.2054 S   0  0  0  0  0  0  0  0  0  0  0  0
   -2.9809    0.7952    0.5882 O   0  0  0  0  0  0  0  0  0  0  0  0
   -3.9661    0.6625   -0.4541 C   0  0  0  0  0  0  0  0  0  0  0  0
   -2.4149   -1.5584    0.7962 O   0  0  0  0  0  0  0  0  0  0  0  0
   -1.6777   -2.7713    0.9760 C   0  0  0  0  0  0  0  0  0  0  0  0
    4.1640   -3.3885   -1.4280 H   0  0  0  0  0  0  0  0  0  0  0  0
    4.0170   -3.9729    0.2370 H   0  0  0  0  0  0  0  0  0  0  0  0
    3.7412   -5.0769   -1.1205 H   0  0  0  0  0  0  0  0  0  0  0  0
    1.5716   -4.3458   -0.1021 H   0  0  0  0  0  0  0  0  0  0  0  0
    1.7310   -3.7578   -1.7910 H   0  0  0  0  0  0  0  0  0  0  0  0
    2.7184    0.5756   -0.4872 H   0  0  0  0  0  0  0  0  0  0  0  0
    1.5828   -0.2100    0.6409 H   0  0  0  0  0  0  0  0  0  0  0  0
    2.2476    4.5495   -0.0564 H   0  0  0  0  0  0  0  0  0  0  0  0
    0.4539    4.5123    0.0102 H   0  0  0  0  0  0  0  0  0  0  0  0
    0.5797    3.4047    2.2487 H   0  0  0  0  0  0  0  0  0  0  0  0
    2.3433    3.4635    2.1853 H   0  0  0  0  0  0  0  0  0  0  0  0
    1.4115    4.9668    2.2678 H   0  0  0  0  0  0  0  0  0  0  0  0
   -3.5092    0.8775   -1.4200 H   0  0  0  0  0  0  0  0  0  0  0  0
   -4.7273    1.4016   -0.2186 H   0  0  0  0  0  0  0  0  0  0  0  0
   -4.3842   -0.3426   -0.4495 H   0  0  0  0  0  0  0  0  0  0  0  0
   -2.4250   -3.5500    1.1105 H   0  0  0  0  0  0  0  0  0  0  0  0
   -1.0401   -2.6963    1.8579 H   0  0  0  0  0  0  0  0  0  0  0  0
   -1.0690   -2.9752    0.0947 H   0  0  0  0  0  0  0  0  0  0  0  0
  1  2  1  0  0  0  0
  2  3  1  0  0  0  0
  3  4  1  0  0  0  0
  4  5  2  0  0  0  0
  4  6  1  0  0  0  0
  6  7  1  0  0  0  0
  7  8  1  0  0  0  0
  7  9  1  0  0  0  0
  9 10  2  0  0  0  0
  9 11  4  0  0  0  0
 11 12  1  0  0  0  0
 12 13  1  0  0  0  0
  7 14  1  0  0  0  0
 14 15  1  0  0  0  0
 15 16  2  0  0  0  0
 15 17  2  0  0  0  0
 17 18  1  0  0  0  0
 15 19  1  0  0  0  0
 19 20  1  0  0  0  0
  1 21  1  0  0  0  0
  1 22  1  0  0  0  0
  1 23  1  0  0  0  0
  2 24  1  0  0  0  0
  2 25  1  0  0  0  0
  6 26  1  0  0  0  0
  6 27  1  0  0  0  0
 12 28  1  0  0  0  0
 12 29  1  0  0  0  0
 13 30  1  0  0  0  0
 13 31  1  0  0  0  0
 13 32  1  0  0  0  0
 18 33  1  0  0  0  0
 18 34  1  0  0  0  0
 18 35  1  0  0  0  0
 20 36  1  0  0  0  0
 20 37  1  0  0  0  0
 20 38  1  0  0  0  0
M  END
