 xtb: 6.7.1 (edcfbbe)
          04092505203D

 41 40  0     0  0            999 V2000
    4.4833   -1.5356   -1.3364 C   0  0  0  0  0  0  0  0  0  0  0  0
    4.6492   -0.1343   -0.7850 C   0  0  0  0  0  0  0  0  0  0  0  0
    3.6201    0.2026    0.1605 O   0  0  0  0  0  0  0  0  0  0  0  0
    2.0902    0.3621   -0.2592 P   0  0  0  0  0  0  0  0  0  0  0  0
    1.8569    1.2258   -2.0083 S   0  0  0  0  0  0  0  0  0  0  0  0
    1.5386    1.1241    1.0179 O   0  0  0  0  0  0  0  0  0  0  0  0
    1.8672    2.5213    1.2106 C   0  0  0  0  0  0  0  0  0  0  0  0
    0.9619    3.0817    2.2869 C   0  0  0  0  0  0  0  0  0  0  0  0
    1.2486   -1.5456    0.0311 S   0  0  0  0  0  0  0  0  0  0  0  0
    0.1386   -1.6284   -1.4190 C   0  0  0  0  0  0  0  0  0  0  0  0
   -1.5667   -2.0600   -0.9924 S   0  0  0  0  0  0  0  0  0  0  0  0
   -2.0232   -0.4190    0.2449 P   0  0  0  0  0  0  0  0  0  0  0  0
   -1.3796    1.3571   -0.3031 S   0  0  0  0  0  0  0  0  0  0  0  0
   -1.4958   -0.9920    1.6218 O   0  0  0  0  0  0  0  0  0  0  0  0
   -1.1844   -0.1766    2.7691 C   0  0  0  0  0  0  0  0  0  0  0  0
   -2.3901    0.5924    3.2660 C   0  0  0  0  0  0  0  0  0  0  0  0
   -3.5966   -0.5115    0.4424 O   0  0  0  0  0  0  0  0  0  0  0  0
   -4.5309    0.1458   -0.4302 C   0  0  0  0  0  0  0  0  0  0  0  0
   -4.5462   -0.4668   -1.8160 C   0  0  0  0  0  0  0  0  0  0  0  0
    5.3459   -1.7859   -1.9454 H   0  0  0  0  0  0  0  0  0  0  0  0
    4.3908   -2.2534   -0.5252 H   0  0  0  0  0  0  0  0  0  0  0  0
    3.5882   -1.5845   -1.9553 H   0  0  0  0  0  0  0  0  0  0  0  0
    4.6254    0.6016   -1.5951 H   0  0  0  0  0  0  0  0  0  0  0  0
    5.5726   -0.0308   -0.2136 H   0  0  0  0  0  0  0  0  0  0  0  0
    2.9206    2.5829    1.4950 H   0  0  0  0  0  0  0  0  0  0  0  0
    1.7184    3.0428    0.2585 H   0  0  0  0  0  0  0  0  0  0  0  0
    1.0952    2.5315    3.2140 H   0  0  0  0  0  0  0  0  0  0  0  0
    1.2111    4.1256    2.4474 H   0  0  0  0  0  0  0  0  0  0  0  0
   -0.0757    3.0095    1.9703 H   0  0  0  0  0  0  0  0  0  0  0  0
    0.4845   -2.4257   -2.0719 H   0  0  0  0  0  0  0  0  0  0  0  0
    0.1676   -0.6618   -1.9303 H   0  0  0  0  0  0  0  0  0  0  0  0
   -0.8297   -0.8988    3.5059 H   0  0  0  0  0  0  0  0  0  0  0  0
   -0.3703    0.5008    2.4958 H   0  0  0  0  0  0  0  0  0  0  0  0
   -3.2123   -0.0893    3.4681 H   0  0  0  0  0  0  0  0  0  0  0  0
   -2.1290    1.1267    4.1742 H   0  0  0  0  0  0  0  0  0  0  0  0
   -2.7075    1.3109    2.5105 H   0  0  0  0  0  0  0  0  0  0  0  0
   -5.4900    0.0246    0.0749 H   0  0  0  0  0  0  0  0  0  0  0  0
   -4.2677    1.2073   -0.4825 H   0  0  0  0  0  0  0  0  0  0  0  0
   -5.3521   -0.0268   -2.3947 H   0  0  0  0  0  0  0  0  0  0  0  0
   -3.6014   -0.2704   -2.3214 H   0  0  0  0  0  0  0  0  0  0  0  0
   -4.6903   -1.5423   -1.7517 H   0  0  0  0  0  0  0  0  0  0  0  0
  1  2  1  0  0  0  0
  2  3  1  0  0  0  0
  3  4  2  0  0  0  0
  4  5  2  0  0  0  0
  4  6  2  0  0  0  0
  6  7  1  0  0  0  0
  7  8  1  0  0  0  0
  4  9  1  0  0  0  0
  9 10  1  0  0  0  0
 10 11  1  0  0  0  0
 11 12  1  0  0  0  0
 12 13  2  0  0  0  0
 12 14  2  0  0  0  0
 14 15  1  0  0  0  0
 15 16  1  0  0  0  0
 12 17  2  0  0  0  0
 17 18  1  0  0  0  0
 18 19  1  0  0  0  0
  1 20  1  0  0  0  0
  1 21  1  0  0  0  0
  1 22  1  0  0  0  0
  2 23  1  0  0  0  0
  2 24  1  0  0  0  0
  7 25  1  0  0  0  0
  7 26  1  0  0  0  0
  8 27  1  0  0  0  0
  8 28  1  0  0  0  0
  8 29  1  0  0  0  0
 10 30  1  0  0  0  0
 10 31  1  0  0  0  0
 15 32  1  0  0  0  0
 15 33  1  0  0  0  0
 16 34  1  0  0  0  0
 16 35  1  0  0  0  0
 16 36  1  0  0  0  0
 18 37  1  0  0  0  0
 18 38  1  0  0  0  0
 19 39  1  0  0  0  0
 19 40  1  0  0  0  0
 19 41  1  0  0  0  0
M  END
