38
 xtb: 6.7.1 (edcfbbe)
C            4.97508088457577       -3.61577250153860       -2.09821409362078
C            4.20399224150598       -2.85887202988025       -1.04885409088424
O            3.21062217018698       -2.03834285533320       -1.75110596542393
C            2.43934533097573       -1.25948385691272       -0.98600551659901
O            2.50483258334335       -1.21504708904209        0.23100275331888
C            1.50360290173578       -0.42390471888268       -1.82062657409574
C            0.48771684188229        0.34448493753147       -0.97986691635793
H           -0.06813331094177        1.01626841585020       -1.64559139938588
C            1.18958091134040        1.24611326822932        0.02641442640263
O            2.15368268859113        1.91635318943389       -0.30386006132255
O            0.62469041526588        1.28131880249270        1.22576385704676
C            1.23696790566187        2.19134102531754        2.20187380458736
C            0.45518278169112        2.06145886819285        3.48245169988217
S           -0.74571757194837       -0.84689343247719       -0.28845677783496
P           -2.39586212447879        0.41285355294527        0.15315310848283
S           -2.52869009514197        2.04918131027832       -0.88402458064315
O           -3.60467803711589       -0.65123956294857        0.05361738845347
C           -4.08465820478817       -1.08927155329906       -1.24750244071964
O           -2.40807415824756        0.71717182751029        1.72843414693541
C           -2.23366516899955       -0.34717962399251        2.70977261926613
H            4.31636103089309       -4.26849032993617       -2.67780620817882
H            5.48919285293263       -2.93123541805590       -2.77875927213332
H            5.72724446359659       -4.23781833251851       -1.60420818428044
H            4.84628587583290       -2.19096717389499       -0.46782428869946
H            3.67070654522328       -3.52657656615605       -0.36622867229947
H            1.00489573383958       -1.05201790759707       -2.56352636624445
H            2.11463982801481        0.29405764491147       -2.37920600812529
H            2.28305594210733        1.89644963517928        2.32416161984953
H            1.19467959623755        3.20410068765887        1.79127084602203
H            0.49127000320580        1.03698283870013        3.86348749343457
H            0.90006679591835        2.72223085983073        4.23231618759551
H           -0.58808342302821        2.35669503476073        3.34075898297123
H           -4.54106066314488       -0.24909125489002       -1.77639513358520
H           -4.83080291362507       -1.85630148634032       -1.04171346278944
H           -3.26692737938465       -1.51181367123859       -1.83766921616907
H           -1.24157857238001       -0.79402042937919        2.60607576140828
H           -3.01147152568465       -1.10535822230803        2.59150047655022
H           -2.32764423132889        0.13579542234729        3.68209414574419
