 xtb: 6.7.1 (edcfbbe)
          04032520123D

 19 19  0     0  0            999 V2000
    2.3995   -0.0001    0.0188 C   0  0  0  0  0  0  0  0  0  0  0  0
    0.9869   -0.0000   -0.2946 N   0  0  0  0  0  0  0  0  0  0  0  0
    0.3226    1.1915    0.2071 C   0  0  0  0  0  0  0  0  0  0  0  0
   -1.1463    1.1865   -0.2299 C   0  0  0  0  0  0  0  0  0  0  0  0
   -1.8569    0.0000    0.2154 N   0  0  0  0  0  0  0  0  0  0  0  0
   -1.1464   -1.1865   -0.2300 C   0  0  0  0  0  0  0  0  0  0  0  0
    0.3225   -1.1916    0.2070 C   0  0  0  0  0  0  0  0  0  0  0  0
    2.8587    0.8856   -0.4166 H   0  0  0  0  0  0  0  0  0  0  0  0
    2.8587   -0.8857   -0.4166 H   0  0  0  0  0  0  0  0  0  0  0  0
    2.5934   -0.0001    1.1043 H   0  0  0  0  0  0  0  0  0  0  0  0
    0.3788    1.2457    1.3133 H   0  0  0  0  0  0  0  0  0  0  0  0
    0.8285    2.0679   -0.2031 H   0  0  0  0  0  0  0  0  0  0  0  0
   -1.6550    2.0697    0.1596 H   0  0  0  0  0  0  0  0  0  0  0  0
   -1.1911    1.2034   -1.3215 H   0  0  0  0  0  0  0  0  0  0  0  0
   -1.8949   -0.0000    1.2323 H   0  0  0  0  0  0  0  0  0  0  0  0
   -1.6551   -2.0697    0.1595 H   0  0  0  0  0  0  0  0  0  0  0  0
   -1.1911   -1.2033   -1.3215 H   0  0  0  0  0  0  0  0  0  0  0  0
    0.3787   -1.2458    1.3132 H   0  0  0  0  0  0  0  0  0  0  0  0
    0.8284   -2.0680   -0.2032 H   0  0  0  0  0  0  0  0  0  0  0  0
  1  2  1  0  0  0  0
  2  3  1  0  0  0  0
  3  4  1  0  0  0  0
  4  5  1  0  0  0  0
  5  6  1  0  0  0  0
  2  7  1  0  0  0  0
  6  7  1  0  0  0  0
  1  8  1  0  0  0  0
  1  9  1  0  0  0  0
  1 10  1  0  0  0  0
  3 11  1  0  0  0  0
  3 12  1  0  0  0  0
  4 13  1  0  0  0  0
  4 14  1  0  0  0  0
  5 15  1  0  0  0  0
  6 16  1  0  0  0  0
  6 17  1  0  0  0  0
  7 18  1  0  0  0  0
  7 19  1  0  0  0  0
M  END
