  27
 
 C          4.9114523942       -0.5021309284       -0.0022868539
 C          3.6987715574        0.4209645664        0.0002137378
 C          2.3897822179       -0.3648683532       -0.0005357716
 C          1.1792078393        0.5609727611        0.0001643707
 O         -0.0000234989       -0.2176704083        0.0000516578
 C         -1.1792317963        0.5609565887       -0.0000398639
 C         -2.3897938875       -0.3649107833        0.0004904713
 C         -3.6987938584        0.4208731679       -0.0002326338
 C         -4.9114646794       -0.5022447929        0.0022120664
 H          5.8301407872        0.0789075951       -0.0004368297
 H          4.9050507913       -1.1409456829        0.8775020400
 H          4.9053866415       -1.1356581270       -0.8858889121
 H          3.7316055986        1.0627785213        0.8831085953
 H          3.7305759601        1.0661882431       -0.8802306548
 H          2.3353940222       -1.0055745295       -0.8819774994
 H          2.3352990079       -1.0069910202        0.8798636060
 H          1.1942333886        1.2096997645        0.8905341199
 H          1.1938547651        1.2105514134       -0.8895861761
 H         -1.1942305020        1.2097846223       -0.8903336895
 H         -1.1939526391        1.2104429557        0.8897737173
 H         -2.3354217533       -1.0057186530        0.8818605732
 H         -2.3352428120       -1.0069194879       -0.8799745878
 H         -3.7316560876        1.0627253851       -0.8830972526
 H         -3.7306441033        1.0660639073        0.8802279627
 H         -5.8301537561        0.0787847986        0.0003198796
 H         -4.9050157506       -1.1410650455       -0.8775637346
 H         -4.9054266179       -1.1357776427        0.8858118947
          27
        -30.38128853
 C          3.7484485962       -1.2414705800       -0.3020075544
 C          2.3054887508       -0.8391460490       -0.0250013464
 C          2.2012766078        0.6093097267        0.4476372856
 C          0.7546384711        1.0192505178        0.7028882217
 O          0.0544884830        1.0028598481       -0.5284534978
 C         -1.2688853438        1.4949574946       -0.4690935567
 C         -2.2598010870        0.5679864234        0.2418459458
 C         -2.3021824615       -0.8164840043       -0.4012443026
 C         -3.2426702313       -1.7583983304        0.3399778699
 H          4.3501430307       -1.1441876753        0.5987483209
 H          3.7974453704       -2.2733322708       -0.6398214104
 H          4.1787905175       -0.6061954597       -1.0723066237
 H          1.7087130764       -0.9508910288       -0.9317842900
 H          1.8834827893       -1.4973437763        0.7379414197
 H          2.7676550757        0.7423118735        1.3706046179
 H          2.6184086001        1.2696010113       -0.3141385970
 H          0.2929383250        0.3240165519        1.4172872541
 H          0.7140026255        2.0327028995        1.1316164422
 H         -1.5603291860        1.6122963208       -1.5160223850
 H         -1.2736927043        2.4838874799        0.0142796590
 H         -3.2460571275        1.0320749447        0.1948375246
 H         -1.9862375488        0.4738365862        1.2947096284
 H         -1.2925337115       -1.2326768629       -0.4096661736
 H         -2.6247010957       -0.7175616840       -1.4397704076
 H         -4.2546610434       -1.3599911822        0.3430272779
 H         -3.2576476355       -2.7344712439       -0.1379165459
 H         -2.9217240304       -1.8856811058        1.3714937545
