 xtb: 6.7.1 (edcfbbe)
          04092505203D

 41 40  0     0  0            999 V2000
    3.2098   -1.2960   -2.9315 C   0  0  0  0  0  0  0  0  0  0  0  0
    3.9708   -0.4350   -1.9437 C   0  0  0  0  0  0  0  0  0  0  0  0
    3.4734   -0.5983   -0.6084 O   0  0  0  0  0  0  0  0  0  0  0  0
    2.0353   -0.0702   -0.1668 P   0  0  0  0  0  0  0  0  0  0  0  0
    1.6216    1.6750   -0.9720 S   0  0  0  0  0  0  0  0  0  0  0  0
    2.1296   -0.1677    1.4097 O   0  0  0  0  0  0  0  0  0  0  0  0
    2.5720    0.9382    2.2217 C   0  0  0  0  0  0  0  0  0  0  0  0
    4.0295    1.2662    1.9827 C   0  0  0  0  0  0  0  0  0  0  0  0
    0.8448   -1.7844   -0.5432 S   0  0  0  0  0  0  0  0  0  0  0  0
   -0.2740   -1.9475    0.8909 C   0  0  0  0  0  0  0  0  0  0  0  0
   -2.0148   -1.7091    0.4656 S   0  0  0  0  0  0  0  0  0  0  0  0
   -1.9295    0.4021    0.2602 P   0  0  0  0  0  0  0  0  0  0  0  0
   -0.8534    1.3206    1.6144 S   0  0  0  0  0  0  0  0  0  0  0  0
   -3.4436    0.8721    0.2024 O   0  0  0  0  0  0  0  0  0  0  0  0
   -4.2121    1.1749    1.3801 C   0  0  0  0  0  0  0  0  0  0  0  0
   -4.4726   -0.0515    2.2306 C   0  0  0  0  0  0  0  0  0  0  0  0
   -1.4102    0.6854   -1.1984 O   0  0  0  0  0  0  0  0  0  0  0  0
   -1.7460   -0.0402   -2.4076 C   0  0  0  0  0  0  0  0  0  0  0  0
   -3.2358   -0.1225   -2.6532 C   0  0  0  0  0  0  0  0  0  0  0  0
    2.1704   -0.9684   -2.9740 H   0  0  0  0  0  0  0  0  0  0  0  0
    3.6526   -1.1971   -3.9172 H   0  0  0  0  0  0  0  0  0  0  0  0
    3.2333   -2.3381   -2.6235 H   0  0  0  0  0  0  0  0  0  0  0  0
    3.8915    0.6232   -2.2156 H   0  0  0  0  0  0  0  0  0  0  0  0
    5.0197   -0.7254   -1.8745 H   0  0  0  0  0  0  0  0  0  0  0  0
    1.9324    1.8014    2.0094 H   0  0  0  0  0  0  0  0  0  0  0  0
    2.3900    0.5978    3.2421 H   0  0  0  0  0  0  0  0  0  0  0  0
    4.6396    0.3758    2.1100 H   0  0  0  0  0  0  0  0  0  0  0  0
    4.1619    1.6447    0.9698 H   0  0  0  0  0  0  0  0  0  0  0  0
    4.3441    2.0285    2.6884 H   0  0  0  0  0  0  0  0  0  0  0  0
    0.0157   -1.2254    1.6541 H   0  0  0  0  0  0  0  0  0  0  0  0
   -0.1801   -2.9690    1.2488 H   0  0  0  0  0  0  0  0  0  0  0  0
   -3.6769    1.9365    1.9561 H   0  0  0  0  0  0  0  0  0  0  0  0
   -5.1374    1.5943    0.9825 H   0  0  0  0  0  0  0  0  0  0  0  0
   -5.1682    0.2061    3.0228 H   0  0  0  0  0  0  0  0  0  0  0  0
   -4.8933   -0.8506    1.6258 H   0  0  0  0  0  0  0  0  0  0  0  0
   -3.5433   -0.3998    2.6781 H   0  0  0  0  0  0  0  0  0  0  0  0
   -1.2355    0.5343   -3.1827 H   0  0  0  0  0  0  0  0  0  0  0  0
   -1.3030   -1.0386   -2.3392 H   0  0  0  0  0  0  0  0  0  0  0  0
   -3.7122   -0.7297   -1.8862 H   0  0  0  0  0  0  0  0  0  0  0  0
   -3.6752    0.8715   -2.6408 H   0  0  0  0  0  0  0  0  0  0  0  0
   -3.4053   -0.5795   -3.6233 H   0  0  0  0  0  0  0  0  0  0  0  0
  1  2  1  0  0  0  0
  2  3  1  0  0  0  0
  3  4  2  0  0  0  0
  4  5  2  0  0  0  0
  4  6  2  0  0  0  0
  6  7  1  0  0  0  0
  7  8  1  0  0  0  0
  4  9  1  0  0  0  0
  9 10  1  0  0  0  0
 10 11  1  0  0  0  0
 11 12  1  0  0  0  0
 12 13  2  0  0  0  0
 12 14  2  0  0  0  0
 14 15  1  0  0  0  0
 15 16  1  0  0  0  0
 12 17  2  0  0  0  0
 17 18  1  0  0  0  0
 18 19  1  0  0  0  0
  1 20  1  0  0  0  0
  1 21  1  0  0  0  0
  1 22  1  0  0  0  0
  2 23  1  0  0  0  0
  2 24  1  0  0  0  0
  7 25  1  0  0  0  0
  7 26  1  0  0  0  0
  8 27  1  0  0  0  0
  8 28  1  0  0  0  0
  8 29  1  0  0  0  0
 10 30  1  0  0  0  0
 10 31  1  0  0  0  0
 15 32  1  0  0  0  0
 15 33  1  0  0  0  0
 16 34  1  0  0  0  0
 16 35  1  0  0  0  0
 16 36  1  0  0  0  0
 18 37  1  0  0  0  0
 18 38  1  0  0  0  0
 19 39  1  0  0  0  0
 19 40  1  0  0  0  0
 19 41  1  0  0  0  0
M  END
