 xtb: 6.7.1 (edcfbbe)
          04092505213D

 41 40  0     0  0            999 V2000
    5.7832    0.6700   -0.7784 C   0  0  0  0  0  0  0  0  0  0  0  0
    4.4364    0.9892   -0.1621 C   0  0  0  0  0  0  0  0  0  0  0  0
    3.5703   -0.1430   -0.3787 O   0  0  0  0  0  0  0  0  0  0  0  0
    2.2565   -0.3444    0.4888 P   0  0  0  0  0  0  0  0  0  0  0  0
    2.5376   -0.2549    2.4236 S   0  0  0  0  0  0  0  0  0  0  0  0
    1.7420   -1.7640    0.0555 O   0  0  0  0  0  0  0  0  0  0  0  0
    1.2073   -2.1740   -1.2278 C   0  0  0  0  0  0  0  0  0  0  0  0
    2.0816   -1.7839   -2.3978 C   0  0  0  0  0  0  0  0  0  0  0  0
    0.9260    1.1268   -0.2961 S   0  0  0  0  0  0  0  0  0  0  0  0
   -0.0934    1.3164    1.1857 C   0  0  0  0  0  0  0  0  0  0  0  0
   -1.1848   -0.0947    1.5022 S   0  0  0  0  0  0  0  0  0  0  0  0
   -2.5238    0.1483   -0.1430 P   0  0  0  0  0  0  0  0  0  0  0  0
   -1.9978   -0.4710   -1.9306 S   0  0  0  0  0  0  0  0  0  0  0  0
   -2.9005    1.6835   -0.0745 O   0  0  0  0  0  0  0  0  0  0  0  0
   -2.9565    2.5611   -1.2196 C   0  0  0  0  0  0  0  0  0  0  0  0
   -1.7904    3.5295   -1.2195 C   0  0  0  0  0  0  0  0  0  0  0  0
   -3.8677   -0.4836    0.4189 O   0  0  0  0  0  0  0  0  0  0  0  0
   -3.9793   -1.7474    1.0956 C   0  0  0  0  0  0  0  0  0  0  0  0
   -3.2778   -2.8726    0.3624 C   0  0  0  0  0  0  0  0  0  0  0  0
    6.2102   -0.2099   -0.3054 H   0  0  0  0  0  0  0  0  0  0  0  0
    5.6703    0.4790   -1.8416 H   0  0  0  0  0  0  0  0  0  0  0  0
    6.4497    1.5137   -0.6329 H   0  0  0  0  0  0  0  0  0  0  0  0
    3.9781    1.8631   -0.6329 H   0  0  0  0  0  0  0  0  0  0  0  0
    4.5200    1.1640    0.9159 H   0  0  0  0  0  0  0  0  0  0  0  0
    1.1292   -3.2574   -1.1252 H   0  0  0  0  0  0  0  0  0  0  0  0
    0.2077   -1.7442   -1.3393 H   0  0  0  0  0  0  0  0  0  0  0  0
    2.1009   -0.7018   -2.5108 H   0  0  0  0  0  0  0  0  0  0  0  0
    3.0958   -2.1465   -2.2521 H   0  0  0  0  0  0  0  0  0  0  0  0
    1.6647   -2.2196   -3.3007 H   0  0  0  0  0  0  0  0  0  0  0  0
   -0.6867    2.2184    1.0635 H   0  0  0  0  0  0  0  0  0  0  0  0
    0.5592    1.3805    2.0584 H   0  0  0  0  0  0  0  0  0  0  0  0
   -2.9570    1.9561   -2.1320 H   0  0  0  0  0  0  0  0  0  0  0  0
   -3.9093    3.0843   -1.1251 H   0  0  0  0  0  0  0  0  0  0  0  0
   -1.9053    4.2147   -2.0531 H   0  0  0  0  0  0  0  0  0  0  0  0
   -1.7691    4.0992   -0.2941 H   0  0  0  0  0  0  0  0  0  0  0  0
   -0.8500    2.9920   -1.3351 H   0  0  0  0  0  0  0  0  0  0  0  0
   -3.5715   -1.6305    2.1040 H   0  0  0  0  0  0  0  0  0  0  0  0
   -5.0562   -1.9166    1.1500 H   0  0  0  0  0  0  0  0  0  0  0  0
   -2.2021   -2.6958    0.3494 H   0  0  0  0  0  0  0  0  0  0  0  0
   -3.4730   -3.8117    0.8702 H   0  0  0  0  0  0  0  0  0  0  0  0
   -3.6325   -2.9363   -0.6638 H   0  0  0  0  0  0  0  0  0  0  0  0
  1  2  1  0  0  0  0
  2  3  1  0  0  0  0
  3  4  2  0  0  0  0
  4  5  2  0  0  0  0
  4  6  2  0  0  0  0
  6  7  1  0  0  0  0
  7  8  1  0  0  0  0
  4  9  1  0  0  0  0
  9 10  1  0  0  0  0
 10 11  1  0  0  0  0
 11 12  1  0  0  0  0
 12 13  2  0  0  0  0
 12 14  2  0  0  0  0
 14 15  1  0  0  0  0
 15 16  1  0  0  0  0
 12 17  2  0  0  0  0
 17 18  1  0  0  0  0
 18 19  1  0  0  0  0
  1 20  1  0  0  0  0
  1 21  1  0  0  0  0
  1 22  1  0  0  0  0
  2 23  1  0  0  0  0
  2 24  1  0  0  0  0
  7 25  1  0  0  0  0
  7 26  1  0  0  0  0
  8 27  1  0  0  0  0
  8 28  1  0  0  0  0
  8 29  1  0  0  0  0
 10 30  1  0  0  0  0
 10 31  1  0  0  0  0
 15 32  1  0  0  0  0
 15 33  1  0  0  0  0
 16 34  1  0  0  0  0
 16 35  1  0  0  0  0
 16 36  1  0  0  0  0
 18 37  1  0  0  0  0
 18 38  1  0  0  0  0
 19 39  1  0  0  0  0
 19 40  1  0  0  0  0
 19 41  1  0  0  0  0
M  END
