 xtb: 6.7.1 (edcfbbe)
          04092505213D

 41 40  0     0  0            999 V2000
    3.8347   -0.6391   -2.7399 C   0  0  0  0  0  0  0  0  0  0  0  0
    4.2959    0.4587   -1.8028 C   0  0  0  0  0  0  0  0  0  0  0  0
    3.7735    0.3067   -0.4722 O   0  0  0  0  0  0  0  0  0  0  0  0
    2.2188    0.4009   -0.1169 P   0  0  0  0  0  0  0  0  0  0  0  0
    1.2517    1.7909   -1.0898 S   0  0  0  0  0  0  0  0  0  0  0  0
    2.2950    0.6610    1.4299 O   0  0  0  0  0  0  0  0  0  0  0  0
    2.9479   -0.2433    2.3570 C   0  0  0  0  0  0  0  0  0  0  0  0
    2.4655    0.1037    3.7489 C   0  0  0  0  0  0  0  0  0  0  0  0
    1.5142   -1.6018   -0.3499 S   0  0  0  0  0  0  0  0  0  0  0  0
    0.1892   -1.3416   -1.5711 C   0  0  0  0  0  0  0  0  0  0  0  0
   -1.4481   -1.8609   -0.9931 S   0  0  0  0  0  0  0  0  0  0  0  0
   -1.9549   -0.2602    0.2750 P   0  0  0  0  0  0  0  0  0  0  0  0
   -0.8377    0.1935    1.8114 S   0  0  0  0  0  0  0  0  0  0  0  0
   -3.4039   -0.6675    0.7701 O   0  0  0  0  0  0  0  0  0  0  0  0
   -4.4698   -1.0167   -0.1501 C   0  0  0  0  0  0  0  0  0  0  0  0
   -5.7897   -0.7070    0.5259 C   0  0  0  0  0  0  0  0  0  0  0  0
   -2.1176    0.8864   -0.8301 O   0  0  0  0  0  0  0  0  0  0  0  0
   -2.1406    2.2801   -0.4780 C   0  0  0  0  0  0  0  0  0  0  0  0
   -3.4539    2.6673    0.1692 C   0  0  0  0  0  0  0  0  0  0  0  0
    4.3722   -0.5541   -3.6789 H   0  0  0  0  0  0  0  0  0  0  0  0
    4.0245   -1.6158   -2.3020 H   0  0  0  0  0  0  0  0  0  0  0  0
    2.7684   -0.5368   -2.9352 H   0  0  0  0  0  0  0  0  0  0  0  0
    3.9918    1.4397   -2.1805 H   0  0  0  0  0  0  0  0  0  0  0  0
    5.3770    0.4364   -1.6576 H   0  0  0  0  0  0  0  0  0  0  0  0
    2.6800   -1.2696    2.0884 H   0  0  0  0  0  0  0  0  0  0  0  0
    4.0263   -0.1085    2.2511 H   0  0  0  0  0  0  0  0  0  0  0  0
    1.3826    0.0107    3.7942 H   0  0  0  0  0  0  0  0  0  0  0  0
    2.9183   -0.5743    4.4646 H   0  0  0  0  0  0  0  0  0  0  0  0
    2.7351    1.1268    3.9935 H   0  0  0  0  0  0  0  0  0  0  0  0
    0.4010   -1.9739   -2.4294 H   0  0  0  0  0  0  0  0  0  0  0  0
    0.1616   -0.2829   -1.8443 H   0  0  0  0  0  0  0  0  0  0  0  0
   -4.3434   -0.4437   -1.0722 H   0  0  0  0  0  0  0  0  0  0  0  0
   -4.3745   -2.0819   -0.3720 H   0  0  0  0  0  0  0  0  0  0  0  0
   -5.8616   -1.2528    1.4621 H   0  0  0  0  0  0  0  0  0  0  0  0
   -5.8692    0.3562    0.7357 H   0  0  0  0  0  0  0  0  0  0  0  0
   -6.6021   -1.0059   -0.1285 H   0  0  0  0  0  0  0  0  0  0  0  0
   -1.2999    2.4865    0.1926 H   0  0  0  0  0  0  0  0  0  0  0  0
   -1.9754    2.7966   -1.4248 H   0  0  0  0  0  0  0  0  0  0  0  0
   -3.4496    3.7329    0.3757 H   0  0  0  0  0  0  0  0  0  0  0  0
   -4.2844    2.4320   -0.4916 H   0  0  0  0  0  0  0  0  0  0  0  0
   -3.5743    2.1255    1.1073 H   0  0  0  0  0  0  0  0  0  0  0  0
  1  2  1  0  0  0  0
  2  3  1  0  0  0  0
  3  4  2  0  0  0  0
  4  5  2  0  0  0  0
  4  6  2  0  0  0  0
  6  7  1  0  0  0  0
  7  8  1  0  0  0  0
  4  9  1  0  0  0  0
  9 10  1  0  0  0  0
 10 11  1  0  0  0  0
 11 12  1  0  0  0  0
 12 13  2  0  0  0  0
 12 14  2  0  0  0  0
 14 15  1  0  0  0  0
 15 16  1  0  0  0  0
 12 17  1  0  0  0  0
 17 18  1  0  0  0  0
 18 19  1  0  0  0  0
  1 20  1  0  0  0  0
  1 21  1  0  0  0  0
  1 22  1  0  0  0  0
  2 23  1  0  0  0  0
  2 24  1  0  0  0  0
  7 25  1  0  0  0  0
  7 26  1  0  0  0  0
  8 27  1  0  0  0  0
  8 28  1  0  0  0  0
  8 29  1  0  0  0  0
 10 30  1  0  0  0  0
 10 31  1  0  0  0  0
 15 32  1  0  0  0  0
 15 33  1  0  0  0  0
 16 34  1  0  0  0  0
 16 35  1  0  0  0  0
 16 36  1  0  0  0  0
 18 37  1  0  0  0  0
 18 38  1  0  0  0  0
 19 39  1  0  0  0  0
 19 40  1  0  0  0  0
 19 41  1  0  0  0  0
M  END
